/speed-scratch/l_chopra/AICFD/Airfoil2D_Fluent_Case
/encs/pkg/ansys-2022R2/root/v222/fluent/fluent22.2.0/bin/fluent -r22.2.0 -ssh 2ddp -t30 -g -i fluent_run.jou
/encs/pkg/ansys-2022R2/root/v222/fluent/fluent22.2.0/cortex/lnamd64/cortex.22.2.0 -f fluent -g -i fluent_run.jou (fluent "2ddp -pshmem  -host -r22.2.0 -t30 -mpi=intel -path/encs/pkg/ansys-2022R2/root/v222/fluent -ssh")

Opening input/output transcript to file "/nfs/speed-scratch/l_chopra/AICFD/Airfoil2D_Fluent_Case/fluent-20231219-201723-131816.trn".
Auto-Transcript Start Time:  20:17:23, 19 Dec 2023 
/encs/pkg/ansys-2022R2/root/v222/fluent/fluent22.2.0/bin/fluent -r22.2.0 2ddp -pshmem -host -t30 -mpi=intel -path/encs/pkg/ansys-2022R2/root/v222/fluent -ssh -cx speed-39.encs.concordia.ca:40591:41751
Starting /encs/pkg/ansys-2022R2/root/v222/fluent/fluent22.2.0/lnamd64/2ddp_host/fluent.22.2.0 host -cx speed-39.encs.concordia.ca:40591:41751 "(list (rpsetvar (QUOTE parallel/function) "fluent 2ddp -flux -node -r22.2.0 -t30 -pshmem -mpi=intel -ssh") (rpsetvar (QUOTE parallel/rhost) "") (rpsetvar (QUOTE parallel/ruser) "") (rpsetvar (QUOTE parallel/nprocs_string) "30") (rpsetvar (QUOTE parallel/auto-spawn?) #t) (rpsetvar (QUOTE parallel/trace-level) 0) (rpsetvar (QUOTE parallel/remote-shell) 1) (rpsetvar (QUOTE parallel/path) "/encs/pkg/ansys-2022R2/root/v222/fluent") (rpsetvar (QUOTE parallel/hostsfile) "") (rpsetvar (QUOTE gpuapp/devices) ""))"

              Welcome to ANSYS Fluent 2022 R2

              Copyright 1987-2022 ANSYS, Inc. All Rights Reserved.
              Unauthorized use, distribution or duplication is prohibited.
              This product is subject to U.S. laws governing export and re-export.
              For full Legal Notice, see documentation.

Build Time: May 27 2022 08:43:40 EDT  Build Id: 10212  
 
Connected License Server List:	1055@license-ansys.encs.concordia.ca

     --------------------------------------------------------------
     This is an academic version of ANSYS FLUENT. Usage of this product
     license is limited to the terms and conditions specified in your ANSYS
     license form, additional terms section.
     --------------------------------------------------------------
Host spawning Node 0 on machine "speed-39.encs.concordia.ca" (unix).
/encs/pkg/ansys-2022R2/root/v222/fluent/fluent22.2.0/bin/fluent -r22.2.0 2ddp -flux -node -t30 -pshmem -mpi=intel -ssh -mport 132.205.2.51:132.205.2.51:46719:0
Starting /encs/pkg/ansys-2022R2/root/v222/fluent/fluent22.2.0/multiport/mpi/lnamd64/intel2021/bin/mpirun --rsh=ssh -f /tmp/fluent-appfile.l_chopra.132185 -genv FI_PROVIDER tcp -genv FLUENT_ARCH lnamd64 -genv I_MPI_DEBUG 0 -genv I_MPI_ADJUST_REDUCE 2 -genv I_MPI_ADJUST_ALLREDUCE 2 -genv I_MPI_ADJUST_BCAST 8 -genv I_MPI_ADJUST_BARRIER 2 -genv I_MPI_ADJUST_ALLGATHER 2 -genv I_MPI_ADJUST_GATHER 2 -genv I_MPI_ADJUST_ALLTOALL 1 -genv I_MPI_ADJUST_SCATTER 2 -genv I_MPI_ADJUST_SCATTERV 2 -genv I_MPI_ADJUST_ALLGATHERV 2 -genv I_MPI_ADJUST_GATHERV 2 -genv I_MPI_PLATFORM auto -genv PYTHONHOME /encs/pkg/ansys-2022R2/root/v222/fluent/fluent22.2.0/../../commonfiles/CPython/3_7/linx64/Release/python -genv FLUENT_PROD_DIR /encs/pkg/ansys-2022R2/root/v222/fluent/fluent22.2.0 -genv FLUENT_AFFINITY 0 -genv I_MPI_PIN enable -genv KMP_AFFINITY disabled -n 30 /encs/pkg/ansys-2022R2/root/v222/fluent/fluent22.2.0/lnamd64/2ddp_node/fluent_mpi.22.2.0 node -mpiw intel -pic shmem -mport 132.205.2.51:132.205.2.51:46719:0
[0] MPI startup(): I_MPI_SHM_LMT environment variable is not supported.
[0] MPI startup(): Similar variables:
	 I_MPI_SHM_HEAP
	 I_MPI_SHM
	 I_MPI_SHM_OPT
	 I_MPI_SHM_CMA
	 I_MPI_SHM_THP
[0] MPI startup(): To check the list of supported variables, use the impi_info utility or refer to https://software.intel.com/en-us/mpi-library/documentation/get-started.

-------------------------------------------------------------------------------
ID    Hostname              Core    O.S.      PID     Vendor                
-------------------------------------------------------------------------------
n29   speed-39.encs.concor  30/256  Linux-64  132261  AMD EPYC 7763 64-Core 
n28   speed-39.encs.concor  29/256  Linux-64  132260  AMD EPYC 7763 64-Core 
n27   speed-39.encs.concor  28/256  Linux-64  132259  AMD EPYC 7763 64-Core 
n26   speed-39.encs.concor  27/256  Linux-64  132258  AMD EPYC 7763 64-Core 
n25   speed-39.encs.concor  26/256  Linux-64  132257  AMD EPYC 7763 64-Core 
n24   speed-39.encs.concor  25/256  Linux-64  132256  AMD EPYC 7763 64-Core 
n23   speed-39.encs.concor  24/256  Linux-64  132255  AMD EPYC 7763 64-Core 
n22   speed-39.encs.concor  23/256  Linux-64  132254  AMD EPYC 7763 64-Core 
n21   speed-39.encs.concor  22/256  Linux-64  132253  AMD EPYC 7763 64-Core 
n20   speed-39.encs.concor  21/256  Linux-64  132252  AMD EPYC 7763 64-Core 
n19   speed-39.encs.concor  20/256  Linux-64  132251  AMD EPYC 7763 64-Core 
n18   speed-39.encs.concor  19/256  Linux-64  132249  AMD EPYC 7763 64-Core 
n17   speed-39.encs.concor  18/256  Linux-64  132248  AMD EPYC 7763 64-Core 
n16   speed-39.encs.concor  17/256  Linux-64  132247  AMD EPYC 7763 64-Core 
n15   speed-39.encs.concor  16/256  Linux-64  132246  AMD EPYC 7763 64-Core 
n14   speed-39.encs.concor  15/256  Linux-64  132245  AMD EPYC 7763 64-Core 
n13   speed-39.encs.concor  14/256  Linux-64  132244  AMD EPYC 7763 64-Core 
n12   speed-39.encs.concor  13/256  Linux-64  132243  AMD EPYC 7763 64-Core 
n11   speed-39.encs.concor  12/256  Linux-64  132242  AMD EPYC 7763 64-Core 
n10   speed-39.encs.concor  11/256  Linux-64  132241  AMD EPYC 7763 64-Core 
-------------------------------------------------------------------------------
ID    Hostname              Core    O.S.      PID     Vendor                
-------------------------------------------------------------------------------
n9    speed-39.encs.concor  10/256  Linux-64  132240  AMD EPYC 7763 64-Core 
n8    speed-39.encs.concor  9/256   Linux-64  132239  AMD EPYC 7763 64-Core 
n7    speed-39.encs.concor  8/256   Linux-64  132238  AMD EPYC 7763 64-Core 
n6    speed-39.encs.concor  7/256   Linux-64  132237  AMD EPYC 7763 64-Core 
n5    speed-39.encs.concor  6/256   Linux-64  132236  AMD EPYC 7763 64-Core 
n4    speed-39.encs.concor  5/256   Linux-64  132235  AMD EPYC 7763 64-Core 
n3    speed-39.encs.concor  4/256   Linux-64  132234  AMD EPYC 7763 64-Core 
n2    speed-39.encs.concor  3/256   Linux-64  132233  AMD EPYC 7763 64-Core 
n1    speed-39.encs.concor  2/256   Linux-64  132232  AMD EPYC 7763 64-Core 
n0*   speed-39.encs.concor  1/256   Linux-64  132231  AMD EPYC 7763 64-Core 
host  speed-39.encs.concor          Linux-64  131999  AMD EPYC 7763 64-Core 

MPI Option Selected: intel
Selected system interconnect: shared-memory
-------------------------------------------------------------------------------

Cleanup script file is /nfs/speed-scratch/l_chopra/AICFD/Airfoil2D_Fluent_Case/cleanup-fluent-speed-39.encs.concordia.ca-131999.sh

Reading journal file fluent_run.jou...

> /file/set-tui-version "20.2"

> 
define/                 parallel/               report/
display/                parametric-study/       server/
exit                    plot/                   solve/
file/                   preferences/            surface/
mesh/                   print-license-usage     views/

> /file/read-case results/Airfoil2d_db.cas

Reading "results/Airfoil2d_db.cas"...

Buffering for file scan...



   40105 mixed cells, zone 12, binary.
Warning: reading 8 partition grid onto 30 compute node machine;
         will auto partition.
   40105 cell partition ids, zone 12, 8 partitions, binary.
   79104 2D interior faces, zone 13, binary.
     700 2D interior faces, zone 14, binary.
     400 2D velocity-inlet faces, zone  6, binary.
     205 2D pressure-outlet faces, zone  7, binary.
     201 2D wall faces, zone  8, binary.
   40505 nodes, binary.
40505 node flags, binary.

Building...
     mesh
	auto partitioning mesh by Metis (fast),
	distributing mesh
		parts..............................,
		faces..............................,
		nodes..............................,
		cells..............................,
        bandwidth reduction using Reverse Cuthill-McKee: 1335/48 = 27.8125
     materials,
     interface,
     domains,
	mixture
     zones,
	airfoil
	outlet
	inlet
	part1
	interior-part1
	fluid-part1
     parallel,
Done.

> /define/boundary-conditions/set/velocity-inlet inlet () velocity-spec no yes quit 

> /define/boundary-conditions/set/velocity-inlet inlet () direction-0 no 87 quit 

> /define/boundary-conditions/set/velocity-inlet inlet () direction-1 no 3 quit 

> /solve/initialize/initialize-flow 

> /solve/iterate 1000

  iter  continuity  x-velocity  y-velocity      energy           k       omega     time/iter
     1  1.0000e+00  1.0000e+00  1.0000e+00  1.0000e+00  4.9283e-01  3.4676e-01  0:03:09  999
     2  4.9204e-01  4.9178e-01  4.4337e-01  4.9225e-01  2.4645e-01  1.6112e-01  0:02:44  998
     3  2.9022e-01  3.0872e-01  2.5586e-01  2.9032e-01  1.2936e-01  1.0347e-01  0:02:23  997
     4  2.1652e-01  2.4999e-01  2.0634e-01  2.1658e-01  7.3996e-02  7.1776e-02  0:02:07  996
     5  1.8469e-01  2.1029e-01  1.7298e-01  1.8474e-01  4.7710e-02  5.0845e-02  0:01:54  995
     6  1.5980e-01  1.9881e-01  1.4689e-01  1.5986e-01  3.3826e-02  3.6893e-02  0:01:43  994
     7  1.3789e-01  2.0012e-01  1.2609e-01  1.3794e-01  2.5498e-02  2.7723e-02  0:01:34  993
     8  1.2110e-01  2.0767e-01  1.0958e-01  1.2116e-01  2.0009e-02  2.1602e-02  0:01:28  992
     9  1.0785e-01  2.2023e-01  9.6392e-02  1.0791e-01  1.6125e-02  1.7406e-02  0:01:22  991
    10  9.6891e-02  2.3677e-01  8.5806e-02  9.6967e-02  1.3336e-02  1.4400e-02  0:01:18  990
    11  8.7851e-02  2.5649e-01  7.7452e-02  8.7944e-02  1.1253e-02  1.2155e-02  0:01:14  989

  iter  continuity  x-velocity  y-velocity      energy           k       omega     time/iter
    12  8.0595e-02  2.7899e-01  7.1094e-02  8.0713e-02  9.7198e-03  1.0416e-02  0:01:11  988
    13  7.4820e-02  3.0416e-01  6.6567e-02  7.4968e-02  8.5548e-03  9.0431e-03  0:01:09  987
    14  7.0326e-02  3.3210e-01  6.3735e-02  7.0512e-02  7.6370e-03  7.9187e-03  0:01:07  986
    15  6.6988e-02  3.6303e-01  6.2447e-02  6.7220e-02  6.8188e-03  6.9525e-03  0:01:06  985
    16  6.4793e-02  3.9727e-01  6.2589e-02  6.5081e-02  6.1654e-03  6.1816e-03  0:01:05  984
    17  6.3706e-02  4.3521e-01  6.4047e-02  6.4059e-02  5.6268e-03  5.5375e-03  0:01:04  983
    18  6.3760e-02  4.7733e-01  6.6719e-02  6.4184e-02  5.1699e-03  4.9953e-03  0:01:03  982
    19  6.4972e-02  5.2419e-01  7.0539e-02  6.5477e-02  4.7803e-03  4.5334e-03  0:01:02  981
    20  6.7354e-02  5.7642e-01  7.5502e-02  6.7947e-02  4.4413e-03  4.1354e-03  0:01:02  980
    21  7.0902e-02  6.3474e-01  8.1675e-02  7.1591e-02  4.1469e-03  3.7888e-03  0:01:01  979
    22  7.5671e-02  7.0000e-01  8.9218e-02  7.6465e-02  3.8898e-03  3.4847e-03  0:01:01  978

  iter  continuity  x-velocity  y-velocity      energy           k       omega     time/iter
    23  8.1911e-02  7.7320e-01  9.8396e-02  8.2817e-02  3.6636e-03  3.2159e-03  0:01:01  977
    24  9.0199e-02  8.5552e-01  1.0958e-01  9.1220e-02  3.4638e-03  2.9776e-03  0:01:01  976
    25  1.0153e-01  9.4838e-01  1.2322e-01  1.0266e-01  3.2859e-03  2.7671e-03  0:01:01  975
    26  1.1724e-01  1.0535e+00  1.3981e-01  1.1847e-01  3.1276e-03  2.5808e-03  0:01:01  974
    27  1.3877e-01  1.1729e+00  1.5984e-01  1.4008e-01  2.9853e-03  2.4160e-03  0:01:01  973
    28  1.6748e-01  1.3088e+00  1.8382e-01  1.6886e-01  2.8568e-03  2.2712e-03  0:01:00  972
    29  2.0305e-01  1.4632e+00  2.1221e-01  2.0453e-01  2.7416e-03  2.1437e-03  0:01:00  971
    30  2.4428e-01  1.6382e+00  2.4545e-01  2.4589e-01  2.6390e-03  2.0315e-03  0:01:00  970
    31  2.9102e-01  1.8352e+00  2.8387e-01  2.9283e-01  2.5473e-03  1.9331e-03  0:01:00  969
    32  3.4339e-01  2.0547e+00  3.2739e-01  3.4550e-01  2.4647e-03  1.8462e-03  0:01:00  968
    33  4.0080e-01  2.2963e+00  3.7562e-01  4.0329e-01  2.3882e-03  1.7697e-03  0:01:00  967

  iter  continuity  x-velocity  y-velocity      energy           k       omega     time/iter
    34  4.6215e-01  2.5580e+00  4.2770e-01  4.6516e-01  2.3276e-03  1.7031e-03  0:01:00  966
    35  5.2648e-01  2.8364e+00  4.8225e-01  5.3015e-01  2.2812e-03  1.6433e-03  0:01:00  965
    36  5.9243e-01  3.1264e+00  5.3732e-01  5.9691e-01  2.2427e-03  1.5906e-03  0:01:00  964
    37  6.5873e-01  3.4227e+00  5.9098e-01  6.6419e-01  2.2096e-03  1.5445e-03  0:01:00  963
    38  7.2499e-01  3.7174e+00  6.4045e-01  7.3163e-01  2.1787e-03  1.5017e-03  0:00:59  962
    39  7.8860e-01  4.0023e+00  6.8384e-01  7.9658e-01  2.1471e-03  1.4600e-03  0:00:59  961
    40  8.4590e-01  4.2687e+00  7.2029e-01  8.5535e-01  2.1186e-03  1.4178e-03  0:00:59  960
    41  8.9604e-01  4.5076e+00  7.4914e-01  9.0704e-01  2.0993e-03  1.3732e-03  0:00:59  959
    42  9.3765e-01  4.7117e+00  7.7068e-01  9.5026e-01  2.0889e-03  1.3277e-03  0:00:59  958
    43  9.6956e-01  4.8736e+00  7.8691e-01  9.8376e-01  2.0848e-03  1.2820e-03  0:00:59  957
    44  9.9087e-01  4.9880e+00  8.0066e-01  1.0066e+00  2.0874e-03  1.2365e-03  0:00:59  956

  iter  continuity  x-velocity  y-velocity      energy           k       omega     time/iter
    45  1.0011e+00  5.0508e+00  8.1625e-01  1.0181e+00  2.0930e-03  1.1930e-03  0:00:58  955
    46  1.0000e+00  5.0595e+00  8.3836e-01  1.0182e+00  2.1121e-03  1.1545e-03  0:00:59  954
    47  9.8796e-01  5.0141e+00  8.7084e-01  1.0069e+00  2.1353e-03  1.1207e-03  0:00:59  953
    48  9.6531e-01  4.9157e+00  9.1596e-01  9.8468e-01  2.1637e-03  1.0910e-03  0:00:58  952
    49  9.3291e-01  4.7680e+00  9.7331e-01  9.5231e-01  2.1907e-03  1.0649e-03  0:00:59  951
    50  8.9181e-01  4.5757e+00  1.0404e+00  9.1083e-01  2.2139e-03  1.0415e-03  0:00:59  950
    51  8.4337e-01  4.3456e+00  1.1128e+00  8.6160e-01  2.2299e-03  1.0206e-03  0:00:59  949
    52  7.8949e-01  4.0866e+00  1.1848e+00  8.0655e-01  2.2639e-03  1.0008e-03  0:00:59  948
    53  7.3166e-01  3.8071e+00  1.2510e+00  7.4720e-01  2.2893e-03  9.8263e-04  0:00:58  947
    54  6.7238e-01  3.5180e+00  1.3067e+00  6.8616e-01  2.2991e-03  9.6629e-04  0:00:58  946
    55  6.1410e-01  3.2300e+00  1.3481e+00  6.2598e-01  2.3299e-03  9.5101e-04  0:00:58  945

  iter  continuity  x-velocity  y-velocity      energy           k       omega     time/iter
    56  5.5984e-01  2.9524e+00  1.3734e+00  5.6982e-01  2.3604e-03  9.3632e-04  0:00:58  944
    57  5.1319e-01  2.6983e+00  1.3800e+00  5.2147e-01  2.3725e-03  9.2161e-04  0:00:58  943
    58  4.7821e-01  2.4775e+00  1.3679e+00  4.8526e-01  2.3929e-03  9.0795e-04  0:00:58  942
    59  4.5729e-01  2.2971e+00  1.3383e+00  4.6375e-01  2.4125e-03  8.9810e-04  0:00:58  941
    60  4.4999e-01  2.1605e+00  1.2937e+00  4.5651e-01  2.4245e-03  8.9248e-04  0:00:57  940
    61  4.5410e-01  2.0695e+00  1.2372e+00  4.6122e-01  2.4323e-03  8.9232e-04  0:00:58  939
    62  4.6517e-01  2.0214e+00  1.1722e+00  4.7317e-01  2.4438e-03  8.9864e-04  0:00:58  938
    63  4.7837e-01  2.0074e+00  1.1023e+00  4.8725e-01  2.4764e-03  9.1080e-04  0:00:58  937
    64  4.9077e-01  2.0173e+00  1.0311e+00  5.0043e-01  2.5017e-03  9.2527e-04  0:01:58  936
    65  5.0082e-01  2.0416e+00  9.6172e-01  5.1107e-01  2.5313e-03  9.4203e-04  0:01:46  935
    66  5.0791e-01  2.0724e+00  8.9731e-01  5.1858e-01  2.5971e-03  9.5897e-04  0:01:36  934

  iter  continuity  x-velocity  y-velocity      energy           k       omega     time/iter
    67  5.1163e-01  2.1032e+00  8.3887e-01  5.2255e-01  2.6632e-03  9.7550e-04  0:01:28  933
    68  5.1204e-01  2.1298e+00  7.8725e-01  5.2304e-01  2.7449e-03  9.9047e-04  0:01:22  932
    69  5.0913e-01  2.1483e+00  7.4358e-01  5.2006e-01  2.8324e-03  1.0016e-03  0:01:17  931
    70  5.0276e-01  2.1565e+00  7.0747e-01  5.1348e-01  2.9161e-03  1.0090e-03  0:01:13  930
    71  4.9302e-01  2.1532e+00  6.7809e-01  5.0339e-01  2.9942e-03  1.0134e-03  0:01:10  929
    72  4.8013e-01  2.1378e+00  6.5423e-01  4.9004e-01  3.0642e-03  1.0139e-03  0:01:08  928
    73  4.6437e-01  2.1110e+00  6.3431e-01  4.7372e-01  3.1282e-03  1.0206e-03  0:01:06  927
    74  4.4667e-01  2.0743e+00  6.1644e-01  4.5541e-01  3.1943e-03  1.0302e-03  0:01:04  926
    75  4.2842e-01  2.0287e+00  5.9986e-01  4.3655e-01  3.2533e-03  1.0433e-03  0:01:02  925
    76  4.1083e-01  1.9744e+00  5.8529e-01  4.1840e-01  3.3158e-03  1.0552e-03  0:01:01  924
    77  3.9426e-01  1.9117e+00  5.7339e-01  4.0135e-01  3.3716e-03  1.0680e-03  0:01:00  923

  iter  continuity  x-velocity  y-velocity      energy           k       omega     time/iter
    78  3.7834e-01  1.8422e+00  5.6388e-01  3.8499e-01  3.4251e-03  1.0788e-03  0:01:00  922
    79  3.6230e-01  1.7683e+00  5.5540e-01  3.6853e-01  3.4715e-03  1.0873e-03  0:00:59  921
    80  3.4598e-01  1.6927e+00  5.4653e-01  3.5179e-01  3.5104e-03  1.0940e-03  0:01:00  920
    81  3.2975e-01  1.6172e+00  5.3642e-01  3.3516e-01  3.5447e-03  1.0985e-03  0:00:59  919
    82  3.1398e-01  1.5433e+00  5.2465e-01  3.1901e-01  3.5745e-03  1.1033e-03  0:00:59  918
    83  2.9897e-01  1.4724e+00  5.1108e-01  3.0364e-01  3.5985e-03  1.1075e-03  0:00:58  917
    84  2.8482e-01  1.4058e+00  4.9565e-01  2.8917e-01  3.6212e-03  1.1105e-03  0:00:58  916
    85  2.7159e-01  1.3448e+00  4.7850e-01  2.7564e-01  3.6458e-03  1.1134e-03  0:00:57  915
    86  2.5937e-01  1.2904e+00  4.5982e-01  2.6315e-01  3.6658e-03  1.1157e-03  0:00:57  914
    87  2.4817e-01  1.2432e+00  4.3978e-01  2.5171e-01  3.6796e-03  1.1171e-03  0:00:57  913
    88  2.3807e-01  1.2035e+00  4.1868e-01  2.4140e-01  3.6919e-03  1.1182e-03  0:00:57  912

  iter  continuity  x-velocity  y-velocity      energy           k       omega     time/iter
    89  2.2914e-01  1.1709e+00  3.9698e-01  2.3229e-01  3.7044e-03  1.1198e-03  0:00:57  911
    90  2.2136e-01  1.1443e+00  3.7530e-01  2.2435e-01  3.7213e-03  1.1224e-03  0:00:57  910
    91  2.1470e-01  1.1229e+00  3.5395e-01  2.1756e-01  3.7497e-03  1.1259e-03  0:00:56  909
    92  2.0913e-01  1.1058e+00  3.3357e-01  2.1187e-01  3.7813e-03  1.1270e-03  0:00:56  908
    93  2.0454e-01  1.0915e+00  3.1461e-01  2.0718e-01  3.8163e-03  1.1265e-03  0:00:56  907
    94  2.0085e-01  1.0788e+00  2.9750e-01  2.0339e-01  3.8471e-03  1.1270e-03  0:00:56  906
    95  1.9798e-01  1.0668e+00  2.8254e-01  2.0044e-01  3.8702e-03  1.1298e-03  0:00:56  905
    96  1.9580e-01  1.0546e+00  2.6994e-01  1.9819e-01  3.8872e-03  1.1291e-03  0:00:56  904
    97  1.9426e-01  1.0419e+00  2.5964e-01  1.9657e-01  3.9622e-03  1.1258e-03  0:00:56  903
    98  1.9322e-01  1.0278e+00  2.5148e-01  1.9546e-01  3.9774e-03  1.1212e-03  0:00:56  902
    99  1.9266e-01  1.0124e+00  2.4506e-01  1.9483e-01  4.0099e-03  1.1144e-03  0:00:55  901

  iter  continuity  x-velocity  y-velocity      energy           k       omega     time/iter
   100  1.9249e-01  9.9532e-01  2.4001e-01  1.9459e-01  4.0509e-03  1.1087e-03  0:00:56  900
   101  1.9266e-01  9.7681e-01  2.3592e-01  1.9470e-01  4.0675e-03  1.1012e-03  0:00:55  899
   102  1.9312e-01  9.5724e-01  2.3238e-01  1.9510e-01  4.0657e-03  1.0924e-03  0:00:55  898
   103  1.9378e-01  9.3657e-01  2.2905e-01  1.9570e-01  4.0777e-03  1.0843e-03  0:00:55  897
   104  1.9455e-01  9.1480e-01  2.2552e-01  1.9642e-01  4.0939e-03  1.0729e-03  0:00:55  896
   105  1.9534e-01  8.9219e-01  2.2154e-01  1.9716e-01  4.1032e-03  1.0639e-03  0:00:55  895
   106  1.9606e-01  8.6913e-01  2.1746e-01  1.9783e-01  4.0915e-03  1.0516e-03  0:00:55  894
   107  1.9677e-01  8.4665e-01  2.1334e-01  1.9850e-01  4.0808e-03  1.0401e-03  0:00:55  893
   108  1.9745e-01  8.2478e-01  2.0910e-01  1.9914e-01  4.0673e-03  1.0268e-03  0:00:55  892
   109  1.9803e-01  8.0337e-01  2.0486e-01  1.9970e-01  4.0525e-03  1.0130e-03  0:00:55  891
   110  1.9842e-01  7.8248e-01  2.0051e-01  2.0008e-01  4.0419e-03  9.9793e-04  0:00:55  890

  iter  continuity  x-velocity  y-velocity      energy           k       omega     time/iter
   111  1.9874e-01  7.6257e-01  1.9635e-01  2.0039e-01  4.0217e-03  9.8179e-04  0:00:55  889
   112  1.9899e-01  7.4409e-01  1.9306e-01  2.0064e-01  3.9966e-03  9.6594e-04  0:00:55  888
   113  1.9924e-01  7.2820e-01  1.9040e-01  2.0091e-01  3.9802e-03  9.5004e-04  0:00:55  887
   114  1.9951e-01  7.1415e-01  1.8831e-01  2.0122e-01  3.9651e-03  9.3349e-04  0:00:55  886
   115  1.9971e-01  7.0149e-01  1.8698e-01  2.0145e-01  3.9447e-03  9.1708e-04  0:00:55  885
   116  1.9972e-01  6.9033e-01  1.8636e-01  2.0151e-01  3.9261e-03  9.0073e-04  0:00:55  884
   117  1.9968e-01  6.8096e-01  1.8666e-01  2.0152e-01  3.9053e-03  8.8529e-04  0:00:55  883
   118  1.9959e-01  6.7421e-01  1.8796e-01  2.0148e-01  3.8870e-03  8.7118e-04  0:00:55  882
   119  1.9959e-01  6.6957e-01  1.8988e-01  2.0154e-01  3.8696e-03  8.5919e-04  0:00:55  881
   120  1.9963e-01  6.6622e-01  1.9226e-01  2.0164e-01  3.8591e-03  8.4961e-04  0:00:54  880
   121  1.9943e-01  6.6471e-01  1.9530e-01  2.0150e-01  3.8630e-03  8.4277e-04  0:00:54  879

  iter  continuity  x-velocity  y-velocity      energy           k       omega     time/iter
   122  1.9911e-01  6.6434e-01  1.9874e-01  2.0122e-01  3.8688e-03  8.4309e-04  0:00:54  878
   123  1.9911e-01  6.6538e-01  2.0255e-01  2.0127e-01  3.8786e-03  8.5966e-04  0:00:54  877
   124  1.9904e-01  6.6786e-01  2.0637e-01  2.0124e-01  3.8956e-03  8.8023e-04  0:00:54  876
   125  1.9914e-01  6.7133e-01  2.1032e-01  2.0137e-01  3.9170e-03  9.0143e-04  0:00:54  875
   126  1.9956e-01  6.7582e-01  2.1425e-01  2.0181e-01  3.9437e-03  9.2333e-04  0:00:54  874
   127  2.0039e-01  6.8055e-01  2.1813e-01  2.0266e-01  3.9748e-03  9.4460e-04  0:00:55  873
   128  2.0152e-01  6.8561e-01  2.2177e-01  2.0380e-01  4.0109e-03  9.6464e-04  0:00:54  872
   129  2.0303e-01  6.9081e-01  2.2537e-01  2.0531e-01  4.0507e-03  9.8217e-04  0:00:54  871
   130  2.0472e-01  6.9625e-01  2.2861e-01  2.0699e-01  4.0902e-03  9.9717e-04  0:00:54  870
   131  2.0662e-01  7.0156e-01  2.3158e-01  2.0887e-01  4.1261e-03  1.0083e-03  0:00:54  869
   132  2.0845e-01  7.0656e-01  2.3414e-01  2.1068e-01  4.1580e-03  1.0160e-03  0:00:54  868

  iter  continuity  x-velocity  y-velocity      energy           k       omega     time/iter
   133  2.1017e-01  7.1124e-01  2.3641e-01  2.1236e-01  4.1852e-03  1.0196e-03  0:00:54  867
   134  2.1165e-01  7.1529e-01  2.3829e-01  2.1380e-01  4.2139e-03  1.0203e-03  0:00:53  866
   135  2.1288e-01  7.1900e-01  2.3980e-01  2.1499e-01  4.2389e-03  1.0167e-03  0:00:53  865
   136  2.1384e-01  7.2209e-01  2.4063e-01  2.1589e-01  4.2695e-03  1.0094e-03  0:00:53  864
   137  2.1445e-01  7.2442e-01  2.4110e-01  2.1643e-01  4.3085e-03  9.9876e-04  0:00:53  863
   138  2.1460e-01  7.2620e-01  2.4102e-01  2.1652e-01  4.3426e-03  9.8463e-04  0:00:54  862
   139  2.1405e-01  7.2698e-01  2.4071e-01  2.1590e-01  4.3834e-03  9.6772e-04  0:00:53  861
   140  2.1275e-01  7.2731e-01  2.3987e-01  2.1453e-01  4.4195e-03  9.4834e-04  0:00:53  860
   141  2.1071e-01  7.2667e-01  2.3872e-01  2.1241e-01  4.4513e-03  9.2816e-04  0:00:53  859
   142  2.0799e-01  7.2542e-01  2.3729e-01  2.0961e-01  4.4854e-03  9.0725e-04  0:00:53  858
   143  2.0468e-01  7.2345e-01  2.3550e-01  2.0623e-01  4.5347e-03  8.8501e-04  0:00:53  857

  iter  continuity  x-velocity  y-velocity      energy           k       omega     time/iter
   144  2.0081e-01  7.2075e-01  2.3380e-01  2.0229e-01  4.5894e-03  8.6212e-04  0:00:53  856
   145  1.9649e-01  7.1756e-01  2.3208e-01  1.9788e-01  4.6489e-03  8.3755e-04  0:00:53  855
   146  1.9179e-01  7.1384e-01  2.3037e-01  1.9311e-01  4.7193e-03  8.1116e-04  0:00:54  854
   147  1.8684e-01  7.0976e-01  2.2879e-01  1.8809e-01  4.8177e-03  7.8299e-04  0:00:54  853
   148  1.8177e-01  7.0555e-01  2.2732e-01  1.8295e-01  4.9305e-03  7.5412e-04  0:00:53  852
   149  1.7670e-01  7.0165e-01  2.2581e-01  1.7782e-01  5.0454e-03  7.2358e-04  0:00:53  851
   150  1.7169e-01  6.9845e-01  2.2420e-01  1.7276e-01  5.1986e-03  6.9221e-04  0:00:53  850
   151  1.6683e-01  6.9597e-01  2.2258e-01  1.6785e-01  5.3817e-03  6.6078e-04  0:00:52  849
   152  1.6216e-01  6.9516e-01  2.2101e-01  1.6314e-01  5.5626e-03  6.2907e-04  0:00:52  848
   153  1.5770e-01  6.9629e-01  2.1951e-01  1.5864e-01  5.8010e-03  6.0065e-04  0:00:52  847
   154  1.5344e-01  6.9944e-01  2.1819e-01  1.5435e-01  6.0555e-03  5.8247e-04  0:00:52  846

  iter  continuity  x-velocity  y-velocity      energy           k       omega     time/iter
   155  1.4955e-01  7.0574e-01  2.1709e-01  1.5043e-01  6.3050e-03  5.8351e-04  0:00:52  845
   156  1.4622e-01  7.1561e-01  2.1633e-01  1.4708e-01  6.5590e-03  6.0132e-04  0:00:52  844
   157  1.4350e-01  7.2870e-01  2.1602e-01  1.4434e-01  6.7755e-03  6.1971e-04  0:00:52  843
   158  1.4141e-01  7.4595e-01  2.1623e-01  1.4223e-01  6.9444e-03  6.3662e-04  0:00:52  842
   159  1.4010e-01  7.6791e-01  2.1686e-01  1.4090e-01  7.0582e-03  6.5170e-04  0:00:52  841
   160  1.3937e-01  7.9402e-01  2.1798e-01  1.4016e-01  7.1329e-03  6.6481e-04  0:00:51  840
   161  1.3939e-01  8.2495e-01  2.1965e-01  1.4015e-01  7.1762e-03  6.7556e-04  0:00:51  839
   162  1.4013e-01  8.6042e-01  2.2180e-01  1.4087e-01  7.2163e-03  6.8427e-04  0:00:51  838
   163  1.4174e-01  9.0054e-01  2.2438e-01  1.4246e-01  7.2644e-03  6.9093e-04  0:00:52  837
   164  1.4418e-01  9.4436e-01  2.2741e-01  1.4489e-01  7.3050e-03  6.9628e-04  0:00:52  836
   165  1.4749e-01  9.9170e-01  2.3084e-01  1.4819e-01  7.3719e-03  6.9893e-04  0:00:51  835

  iter  continuity  x-velocity  y-velocity      energy           k       omega     time/iter
   166  1.5175e-01  1.0425e+00  2.3459e-01  1.5245e-01  7.4874e-03  7.0004e-04  0:00:51  834
   167  1.5688e-01  1.0955e+00  2.3855e-01  1.5760e-01  7.6055e-03  7.0048e-04  0:00:51  833
   168  1.6288e-01  1.1498e+00  2.4271e-01  1.6362e-01  7.7581e-03  7.0073e-04  0:00:51  832
   169  1.6983e-01  1.2055e+00  2.4709e-01  1.7061e-01  7.9995e-03  7.0039e-04  0:00:51  831
   170  1.7749e-01  1.2611e+00  2.5156e-01  1.7834e-01  8.2959e-03  7.0067e-04  0:00:51  830
   171  1.8571e-01  1.3157e+00  2.5606e-01  1.8664e-01  8.6463e-03  7.0127e-04  0:00:51  829
   172  1.9435e-01  1.3687e+00  2.6060e-01  1.9539e-01  9.0276e-03  7.0344e-04  0:00:51  828
   173  2.0339e-01  1.4191e+00  2.6523e-01  2.0456e-01  9.4513e-03  7.0613e-04  0:00:51  827
   174  2.1228e-01  1.4662e+00  2.6986e-01  2.1359e-01  9.8617e-03  7.0607e-04  0:00:51  826
   175  2.2047e-01  1.5088e+00  2.7446e-01  2.2195e-01  1.0278e-02  7.0508e-04  0:00:51  825
   176  2.2795e-01  1.5459e+00  2.7920e-01  2.2958e-01  1.0676e-02  7.0357e-04  0:00:51  824

  iter  continuity  x-velocity  y-velocity      energy           k       omega     time/iter
   177  2.3462e-01  1.5771e+00  2.8418e-01  2.3643e-01  1.1057e-02  7.0159e-04  0:00:51  823
   178  2.4042e-01  1.6016e+00  2.8944e-01  2.4241e-01  1.1418e-02  6.9945e-04  0:00:51  822
   179  2.4526e-01  1.6188e+00  2.9508e-01  2.4741e-01  1.1740e-02  6.9713e-04  0:00:50  821
   180  2.4893e-01  1.6278e+00  3.0109e-01  2.5125e-01  1.2068e-02  6.9386e-04  0:00:50  820
   181  2.5136e-01  1.6287e+00  3.0746e-01  2.5383e-01  1.2336e-02  6.9408e-04  0:00:50  819
   182  2.5201e-01  1.6213e+00  3.1424e-01  2.5462e-01  1.2603e-02  6.9244e-04  0:00:50  818
   183  2.5135e-01  1.6052e+00  3.2138e-01  2.5408e-01  1.2798e-02  6.8993e-04  0:00:50  817
   184  2.4936e-01  1.5805e+00  3.2877e-01  2.5219e-01  1.3005e-02  6.8932e-04  0:00:50  816
   185  2.4602e-01  1.5475e+00  3.3622e-01  2.4891e-01  1.3155e-02  6.8692e-04  0:00:50  815
   186  2.4134e-01  1.5066e+00  3.4356e-01  2.4427e-01  1.3280e-02  6.8513e-04  0:00:50  814
   187  2.3532e-01  1.4585e+00  3.5068e-01  2.3827e-01  1.3426e-02  6.8272e-04  0:00:50  813

  iter  continuity  x-velocity  y-velocity      energy           k       omega     time/iter
   188  2.2805e-01  1.4035e+00  3.5734e-01  2.3097e-01  1.3533e-02  6.8059e-04  0:00:50  812
   189  2.1961e-01  1.3428e+00  3.6325e-01  2.2248e-01  1.3670e-02  6.7772e-04  0:00:50  811
   190  2.1003e-01  1.2773e+00  3.6827e-01  2.1280e-01  1.3805e-02  6.7428e-04  0:00:50  810
   191  1.9947e-01  1.2082e+00  3.7219e-01  2.0212e-01  1.3916e-02  6.7117e-04  0:00:50  809
   192  1.8817e-01  1.1366e+00  3.7481e-01  1.9066e-01  1.4039e-02  6.6805e-04  0:00:49  808
   193  1.7633e-01  1.0642e+00  3.7596e-01  1.7864e-01  1.4111e-02  6.6511e-04  0:00:49  807
   194  1.6419e-01  9.9302e-01  3.7563e-01  1.6628e-01  1.4172e-02  6.6242e-04  0:00:49  806
   195  1.5189e-01  9.2488e-01  3.7356e-01  1.5375e-01  1.4219e-02  6.6064e-04  0:00:49  805
   196  1.3993e-01  8.6132e-01  3.7003e-01  1.4155e-01  1.4247e-02  6.5966e-04  0:00:49  804
   197  1.2887e-01  8.0446e-01  3.6520e-01  1.3023e-01  1.4292e-02  6.5899e-04  0:00:49  803
   198  1.1914e-01  7.5624e-01  3.5926e-01  1.2025e-01  1.4307e-02  6.5874e-04  0:00:49  802

  iter  continuity  x-velocity  y-velocity      energy           k       omega     time/iter
   199  1.1124e-01  7.1811e-01  3.5225e-01  1.1211e-01  1.4340e-02  6.5902e-04  0:00:49  801
   200  1.0546e-01  6.9126e-01  3.4440e-01  1.0614e-01  1.4370e-02  6.5971e-04  0:00:49  800
   201  1.0227e-01  6.7617e-01  3.3574e-01  1.0281e-01  1.4375e-02  6.6117e-04  0:00:49  799
   202  1.0169e-01  6.7155e-01  3.2640e-01  1.0217e-01  1.4378e-02  6.6315e-04  0:00:49  798
   203  1.0337e-01  6.7542e-01  3.1663e-01  1.0385e-01  1.4413e-02  6.6532e-04  0:00:49  797
   204  1.0697e-01  6.8669e-01  3.0680e-01  1.0751e-01  1.4451e-02  6.6832e-04  0:00:49  796
   205  1.1198e-01  7.0380e-01  2.9733e-01  1.1261e-01  1.4466e-02  6.7195e-04  0:00:49  795
   206  1.1788e-01  7.2385e-01  2.8824e-01  1.1864e-01  1.4479e-02  6.7496e-04  0:00:48  794
   207  1.2429e-01  7.4494e-01  2.7961e-01  1.2517e-01  1.4489e-02  6.7838e-04  0:00:48  793
   208  1.3083e-01  7.6501e-01  2.7120e-01  1.3185e-01  1.4510e-02  6.8172e-04  0:00:48  792
   209  1.3718e-01  7.8274e-01  2.6323e-01  1.3832e-01  1.4575e-02  6.8496e-04  0:00:48  791

  iter  continuity  x-velocity  y-velocity      energy           k       omega     time/iter
   210  1.4307e-01  7.9740e-01  2.5579e-01  1.4431e-01  1.4606e-02  6.8802e-04  0:00:48  790
   211  1.4851e-01  8.0998e-01  2.4968e-01  1.4985e-01  1.4651e-02  6.9084e-04  0:00:48  789
   212  1.5332e-01  8.1927e-01  2.4484e-01  1.5474e-01  1.4727e-02  6.9296e-04  0:00:48  788
   213  1.5736e-01  8.2470e-01  2.4087e-01  1.5885e-01  1.4784e-02  6.9485e-04  0:00:48  787
   214  1.6069e-01  8.2677e-01  2.3738e-01  1.6222e-01  1.4857e-02  6.9637e-04  0:00:48  786
   215  1.6327e-01  8.2442e-01  2.3435e-01  1.6483e-01  1.4924e-02  6.9756e-04  0:00:48  785
   216  1.6507e-01  8.1739e-01  2.3184e-01  1.6664e-01  1.4965e-02  6.9875e-04  0:00:48  784
   217  1.6620e-01  8.0852e-01  2.3049e-01  1.6778e-01  1.5041e-02  6.9934e-04  0:00:48  783
   218  1.6667e-01  7.9628e-01  2.3022e-01  1.6823e-01  1.5123e-02  6.9919e-04  0:00:48  782
   219  1.6647e-01  7.8122e-01  2.3003e-01  1.6801e-01  1.5171e-02  6.9825e-04  0:00:48  781
   220  1.6566e-01  7.6484e-01  2.2961e-01  1.6718e-01  1.5273e-02  6.9786e-04  0:00:48  780

  iter  continuity  x-velocity  y-velocity      energy           k       omega     time/iter
   221  1.6436e-01  7.4686e-01  2.2863e-01  1.6584e-01  1.5388e-02  6.9689e-04  0:00:48  779
   222  1.6260e-01  7.2559e-01  2.2737e-01  1.6405e-01  1.5460e-02  6.9543e-04  0:00:48  778
   223  1.6048e-01  7.0288e-01  2.2661e-01  1.6188e-01  1.5538e-02  6.9374e-04  0:00:48  777
   224  1.5804e-01  6.7990e-01  2.2553e-01  1.5939e-01  1.5696e-02  6.9208e-04  0:00:48  776
   225  1.5536e-01  6.5764e-01  2.2410e-01  1.5666e-01  1.5811e-02  6.8941e-04  0:00:48  775
   226  1.5255e-01  6.3540e-01  2.2185e-01  1.5380e-01  1.5885e-02  6.8758e-04  0:00:48  774
   227  1.4967e-01  6.1318e-01  2.1927e-01  1.5087e-01  1.6071e-02  6.8794e-04  0:00:48  773
   228  1.4678e-01  5.9192e-01  2.1636e-01  1.4793e-01  1.6235e-02  6.8695e-04  0:00:47  772
   229  1.4392e-01  5.7218e-01  2.1326e-01  1.4502e-01  1.6362e-02  6.8388e-04  0:00:47  771
   230  1.4119e-01  5.5440e-01  2.0970e-01  1.4225e-01  1.6498e-02  6.8383e-04  0:00:49  770
   231  1.3860e-01  5.3789e-01  2.0575e-01  1.3961e-01  1.6685e-02  6.8224e-04  0:00:48  769

  iter  continuity  x-velocity  y-velocity      energy           k       omega     time/iter
   232  1.3617e-01  5.2258e-01  2.0155e-01  1.3714e-01  1.6876e-02  6.8075e-04  0:00:48  768
   233  1.3398e-01  5.0945e-01  1.9737e-01  1.3492e-01  1.7044e-02  6.7927e-04  0:00:48  767
   234  1.3203e-01  4.9858e-01  1.9325e-01  1.3293e-01  1.7167e-02  6.7717e-04  0:00:48  766
   235  1.3031e-01  4.8935e-01  1.8930e-01  1.3119e-01  1.7370e-02  6.7552e-04  0:00:48  765
   236  1.2881e-01  4.8138e-01  1.8555e-01  1.2966e-01  1.7568e-02  6.7362e-04  0:00:48  764
   237  1.2751e-01  4.7484e-01  1.8186e-01  1.2834e-01  1.7720e-02  6.7161e-04  0:00:47  763
   238  1.2639e-01  4.6952e-01  1.7825e-01  1.2720e-01  1.7871e-02  6.6908e-04  0:00:48  762
   239  1.2542e-01  4.6463e-01  1.7466e-01  1.2620e-01  1.7989e-02  6.6581e-04  0:00:47  761
   240  1.2461e-01  4.6029e-01  1.7144e-01  1.2538e-01  1.8151e-02  6.6151e-04  0:00:47  760
   241  1.2390e-01  4.5670e-01  1.6867e-01  1.2466e-01  1.8333e-02  6.5781e-04  0:00:47  759
   242  1.2329e-01  4.5389e-01  1.6620e-01  1.2404e-01  1.8489e-02  6.5409e-04  0:00:47  758

  iter  continuity  x-velocity  y-velocity      energy           k       omega     time/iter
   243  1.2279e-01  4.5190e-01  1.6411e-01  1.2353e-01  1.8568e-02  6.4940e-04  0:00:47  757
   244  1.2236e-01  4.4996e-01  1.6235e-01  1.2309e-01  1.8655e-02  6.4465e-04  0:00:47  756
   245  1.2200e-01  4.4792e-01  1.6097e-01  1.2273e-01  1.8771e-02  6.3979e-04  0:00:47  755
   246  1.2173e-01  4.4652e-01  1.5986e-01  1.2244e-01  1.8885e-02  6.3500e-04  0:00:47  754
   247  1.2154e-01  4.4572e-01  1.5894e-01  1.2226e-01  1.9006e-02  6.3018e-04  0:00:47  753
   248  1.2144e-01  4.4488e-01  1.5819e-01  1.2216e-01  1.9103e-02  6.2691e-04  0:00:47  752
   249  1.2138e-01  4.4434e-01  1.5763e-01  1.2210e-01  1.9190e-02  6.2332e-04  0:00:47  751
   250  1.2141e-01  4.4434e-01  1.5725e-01  1.2213e-01  1.9240e-02  6.2000e-04  0:00:46  750
   251  1.2154e-01  4.4502e-01  1.5688e-01  1.2226e-01  1.9299e-02  6.1671e-04  0:00:46  749
   252  1.2181e-01  4.4621e-01  1.5650e-01  1.2254e-01  1.9394e-02  6.1425e-04  0:00:46  748
   253  1.2222e-01  4.4784e-01  1.5612e-01  1.2295e-01  1.9498e-02  6.1164e-04  0:00:46  747

  iter  continuity  x-velocity  y-velocity      energy           k       omega     time/iter
   254  1.2279e-01  4.4970e-01  1.5562e-01  1.2352e-01  1.9595e-02  6.0910e-04  0:00:46  746
   255  1.2355e-01  4.5193e-01  1.5498e-01  1.2429e-01  1.9741e-02  6.0706e-04  0:00:46  745
   256  1.2450e-01  4.5430e-01  1.5432e-01  1.2524e-01  1.9874e-02  6.0599e-04  0:00:45  744
   257  1.2567e-01  4.5692e-01  1.5367e-01  1.2641e-01  2.0004e-02  6.0499e-04  0:00:45  743
   258  1.2690e-01  4.5948e-01  1.5276e-01  1.2765e-01  2.0108e-02  6.0467e-04  0:00:45  742
   259  1.2835e-01  4.6241e-01  1.5171e-01  1.2910e-01  2.0233e-02  6.0477e-04  0:00:45  741
   260  1.2998e-01  4.6573e-01  1.5066e-01  1.3074e-01  2.0418e-02  6.0480e-04  0:00:45  740
   261  1.3175e-01  4.6899e-01  1.4953e-01  1.3251e-01  2.0662e-02  6.0476e-04  0:00:45  739
   262  1.3365e-01  4.7250e-01  1.4850e-01  1.3441e-01  2.0904e-02  6.0502e-04  0:00:45  738
   263  1.3563e-01  4.7601e-01  1.4759e-01  1.3639e-01  2.1197e-02  6.0651e-04  0:00:45  737
   264  1.3764e-01  4.7928e-01  1.4662e-01  1.3840e-01  2.1477e-02  6.0815e-04  0:00:45  736

  iter  continuity  x-velocity  y-velocity      energy           k       omega     time/iter
   265  1.3973e-01  4.8246e-01  1.4566e-01  1.4049e-01  2.1775e-02  6.1086e-04  0:00:45  735
   266  1.4183e-01  4.8553e-01  1.4478e-01  1.4259e-01  2.2076e-02  6.1541e-04  0:00:45  734
   267  1.4389e-01  4.8841e-01  1.4407e-01  1.4465e-01  2.2383e-02  6.2009e-04  0:00:45  733
   268  1.4587e-01  4.9101e-01  1.4327e-01  1.4662e-01  2.2664e-02  6.2465e-04  0:00:45  732
   269  1.4775e-01  4.9354e-01  1.4255e-01  1.4850e-01  2.3034e-02  6.2917e-04  0:00:45  731
   270  1.4960e-01  4.9583e-01  1.4203e-01  1.5035e-01  2.3430e-02  6.3289e-04  0:00:45  730
   271  1.5125e-01  4.9783e-01  1.4176e-01  1.5200e-01  2.3786e-02  6.3566e-04  0:00:45  729
   272  1.5267e-01  4.9954e-01  1.4160e-01  1.5341e-01  2.4140e-02  6.3818e-04  0:00:45  728
   273  1.5386e-01  5.0090e-01  1.4140e-01  1.5459e-01  2.4425e-02  6.3940e-04  0:00:44  727
   274  1.5473e-01  5.0174e-01  1.4145e-01  1.5545e-01  2.4669e-02  6.3951e-04  0:00:44  726
   275  1.5538e-01  5.0232e-01  1.4188e-01  1.5609e-01  2.4972e-02  6.3932e-04  0:00:44  725

  iter  continuity  x-velocity  y-velocity      energy           k       omega     time/iter
   276  1.5576e-01  5.0254e-01  1.4246e-01  1.5645e-01  2.5195e-02  6.3852e-04  0:00:44  724
   277  1.5578e-01  5.0215e-01  1.4331e-01  1.5646e-01  2.5353e-02  6.3649e-04  0:00:45  723
   278  1.5548e-01  5.0132e-01  1.4447e-01  1.5615e-01  2.5520e-02  6.3427e-04  0:00:45  722
   279  1.5497e-01  5.0016e-01  1.4599e-01  1.5561e-01  2.5667e-02  6.3216e-04  0:00:44  721
   280  1.5421e-01  4.9881e-01  1.4776e-01  1.5484e-01  2.5736e-02  6.2961e-04  0:00:45  720
   281  1.5310e-01  4.9706e-01  1.4959e-01  1.5371e-01  2.5806e-02  6.2589e-04  0:00:45  719
   282  1.5179e-01  4.9543e-01  1.5169e-01  1.5238e-01  2.5873e-02  6.2200e-04  0:00:44  718
   283  1.5031e-01  4.9377e-01  1.5391e-01  1.5088e-01  2.5945e-02  6.1799e-04  0:00:44  717
   284  1.4860e-01  4.9217e-01  1.5630e-01  1.4915e-01  2.5946e-02  6.1356e-04  0:00:44  716
   285  1.4672e-01  4.9096e-01  1.5877e-01  1.4725e-01  2.5917e-02  6.1011e-04  0:00:44  715
   286  1.4479e-01  4.9008e-01  1.6128e-01  1.4530e-01  2.5853e-02  6.0845e-04  0:00:44  714

  iter  continuity  x-velocity  y-velocity      energy           k       omega     time/iter
   287  1.4278e-01  4.8967e-01  1.6379e-01  1.4328e-01  2.5833e-02  6.0932e-04  0:00:44  713
   288  1.4066e-01  4.8991e-01  1.6630e-01  1.4114e-01  2.5776e-02  6.1563e-04  0:00:44  712
   289  1.3851e-01  4.9095e-01  1.6878e-01  1.3897e-01  2.5726e-02  6.2220e-04  0:00:44  711
   290  1.3644e-01  4.9263e-01  1.7129e-01  1.3689e-01  2.5582e-02  6.2875e-04  0:00:44  710
   291  1.3444e-01  4.9525e-01  1.7377e-01  1.3487e-01  2.5420e-02  6.3504e-04  0:00:43  709
   292  1.3248e-01  4.9897e-01  1.7614e-01  1.3289e-01  2.5246e-02  6.4106e-04  0:00:43  708
   293  1.3068e-01  5.0364e-01  1.7848e-01  1.3108e-01  2.5099e-02  6.4688e-04  0:00:43  707
   294  1.2913e-01  5.0917e-01  1.8085e-01  1.2952e-01  2.4981e-02  6.5180e-04  0:00:43  706
   295  1.2782e-01  5.1561e-01  1.8316e-01  1.2820e-01  2.4882e-02  6.5661e-04  0:00:43  705
   296  1.2670e-01  5.2282e-01  1.8536e-01  1.2707e-01  2.4729e-02  6.6154e-04  0:00:43  704
   297  1.2586e-01  5.3067e-01  1.8750e-01  1.2623e-01  2.4569e-02  6.6611e-04  0:00:43  703

  iter  continuity  x-velocity  y-velocity      energy           k       omega     time/iter
   298  1.2544e-01  5.3904e-01  1.8963e-01  1.2580e-01  2.4369e-02  6.7038e-04  0:00:43  702
   299  1.2531e-01  5.4780e-01  1.9175e-01  1.2567e-01  2.4228e-02  6.7415e-04  0:00:43  701
   300  1.2546e-01  5.5680e-01  1.9384e-01  1.2582e-01  2.4263e-02  6.7792e-04  0:00:43  700
   301  1.2595e-01  5.6578e-01  1.9578e-01  1.2632e-01  2.4402e-02  6.8216e-04  0:00:43  699
   302  1.2678e-01  5.7455e-01  1.9775e-01  1.2716e-01  2.4597e-02  6.8697e-04  0:00:43  698
   303  1.2790e-01  5.8330e-01  1.9975e-01  1.2829e-01  2.4802e-02  6.9195e-04  0:00:43  697
   304  1.2908e-01  5.9156e-01  2.0160e-01  1.2949e-01  2.4976e-02  6.9763e-04  0:00:43  696
   305  1.3055e-01  5.9947e-01  2.0355e-01  1.3098e-01  2.5068e-02  7.0231e-04  0:00:43  695
   306  1.3213e-01  6.0632e-01  2.0553e-01  1.3259e-01  2.5038e-02  7.0642e-04  0:00:43  694
   307  1.3383e-01  6.1257e-01  2.0749e-01  1.3431e-01  2.4983e-02  7.1021e-04  0:00:42  693
   308  1.3571e-01  6.1798e-01  2.0966e-01  1.3622e-01  2.4943e-02  7.1368e-04  0:00:42  692

  iter  continuity  x-velocity  y-velocity      energy           k       omega     time/iter
   309  1.3760e-01  6.2232e-01  2.1196e-01  1.3814e-01  2.4818e-02  7.1722e-04  0:00:42  691
   310  1.3914e-01  6.2553e-01  2.1428e-01  1.3971e-01  2.4589e-02  7.2050e-04  0:00:42  690
   311  1.4018e-01  6.2782e-01  2.1675e-01  1.4077e-01  2.4278e-02  7.2401e-04  0:00:42  689
   312  1.4093e-01  6.2878e-01  2.1957e-01  1.4154e-01  2.3914e-02  7.2765e-04  0:00:42  688
   313  1.4149e-01  6.2916e-01  2.2239e-01  1.4212e-01  2.3512e-02  7.3190e-04  0:00:43  687
   314  1.4180e-01  6.2837e-01  2.2529e-01  1.4245e-01  2.3143e-02  7.3586e-04  0:00:43  686
   315  1.4182e-01  6.2648e-01  2.2811e-01  1.4248e-01  2.2840e-02  7.4003e-04  0:00:43  685
   316  1.4174e-01  6.2440e-01  2.3099e-01  1.4240e-01  2.2485e-02  7.4453e-04  0:00:42  684
   317  1.4139e-01  6.2162e-01  2.3362e-01  1.4206e-01  2.2099e-02  7.4785e-04  0:00:42  683
   318  1.4086e-01  6.1911e-01  2.3615e-01  1.4153e-01  2.1704e-02  7.5044e-04  0:00:42  682
   319  1.4023e-01  6.1547e-01  2.3832e-01  1.4090e-01  2.1343e-02  7.5257e-04  0:00:42  681

  iter  continuity  x-velocity  y-velocity      energy           k       omega     time/iter
   320  1.3934e-01  6.1197e-01  2.4027e-01  1.3999e-01  2.1040e-02  7.5408e-04  0:00:42  680
   321  1.3784e-01  6.0892e-01  2.4227e-01  1.3847e-01  2.0803e-02  7.5639e-04  0:00:43  679
   322  1.3578e-01  6.0661e-01  2.4390e-01  1.3637e-01  2.0584e-02  7.5954e-04  0:00:43  678
   323  1.3335e-01  6.0562e-01  2.4500e-01  1.3390e-01  2.0381e-02  7.6232e-04  0:00:42  677
   324  1.3075e-01  6.0539e-01  2.4534e-01  1.3125e-01  2.0181e-02  7.6409e-04  0:00:42  676
   325  1.2815e-01  6.0749e-01  2.4480e-01  1.2860e-01  1.9996e-02  7.6489e-04  0:00:42  675
   326  1.2559e-01  6.1098e-01  2.4384e-01  1.2598e-01  1.9808e-02  7.6532e-04  0:00:42  674
   327  1.2307e-01  6.1623e-01  2.4241e-01  1.2340e-01  1.9633e-02  7.6515e-04  0:00:42  673
   328  1.2065e-01  6.2350e-01  2.4056e-01  1.2092e-01  1.9496e-02  7.6512e-04  0:00:42  672
   329  1.1845e-01  6.3373e-01  2.3816e-01  1.1866e-01  1.9399e-02  7.6425e-04  0:01:02  671
   330  1.1663e-01  6.4599e-01  2.3518e-01  1.1679e-01  1.9335e-02  7.6257e-04  0:00:58  670

  iter  continuity  x-velocity  y-velocity      energy           k       omega     time/iter
   331  1.1508e-01  6.5839e-01  2.3113e-01  1.1520e-01  1.9312e-02  7.6077e-04  0:00:54  669
   332  1.1376e-01  6.6952e-01  2.2657e-01  1.1383e-01  1.9254e-02  7.5994e-04  0:00:52  668
   333  1.1296e-01  6.7934e-01  2.2192e-01  1.1299e-01  1.9170e-02  7.5878e-04  0:00:50  667
   334  1.1264e-01  6.8988e-01  2.1819e-01  1.1264e-01  1.9060e-02  7.5734e-04  0:00:48  666
   335  1.1277e-01  7.0016e-01  2.1399e-01  1.1276e-01  1.8953e-02  7.5567e-04  0:00:47  665
   336  1.1331e-01  7.0910e-01  2.0924e-01  1.1330e-01  1.8819e-02  7.5382e-04  0:00:46  664
   337  1.1406e-01  7.1530e-01  2.0373e-01  1.1404e-01  1.8645e-02  7.5124e-04  0:00:45  663
   338  1.1523e-01  7.2006e-01  1.9843e-01  1.1522e-01  1.8465e-02  7.4827e-04  0:00:44  662
   339  1.1670e-01  7.2287e-01  1.9421e-01  1.1671e-01  1.8272e-02  7.4510e-04  0:00:43  661
   340  1.1841e-01  7.2471e-01  1.9075e-01  1.1845e-01  1.8083e-02  7.4202e-04  0:00:43  660
   341  1.2027e-01  7.2610e-01  1.8729e-01  1.2034e-01  1.7882e-02  7.3886e-04  0:00:42  659

  iter  continuity  x-velocity  y-velocity      energy           k       omega     time/iter
   342  1.2204e-01  7.2624e-01  1.8336e-01  1.2214e-01  1.7705e-02  7.3542e-04  0:00:42  658
   343  1.2386e-01  7.2780e-01  1.8008e-01  1.2399e-01  1.7533e-02  7.3209e-04  0:01:23  657
   344  1.2573e-01  7.2985e-01  1.7772e-01  1.2590e-01  1.7380e-02  7.2841e-04  0:01:14  656
   345  1.2750e-01  7.3212e-01  1.7669e-01  1.2771e-01  1.7234e-02  7.2515e-04  0:01:07  655
   346  1.2914e-01  7.3459e-01  1.7661e-01  1.2938e-01  1.7081e-02  7.2180e-04  0:01:02  654
   347  1.3053e-01  7.3638e-01  1.7621e-01  1.3080e-01  1.6913e-02  7.1856e-04  0:00:57  653
   348  1.3169e-01  7.3895e-01  1.7633e-01  1.3199e-01  1.6738e-02  7.1567e-04  0:00:54  652
   349  1.3273e-01  7.4116e-01  1.7733e-01  1.3306e-01  1.6563e-02  7.1304e-04  0:00:51  651
   350  1.3360e-01  7.4220e-01  1.7969e-01  1.3395e-01  1.6411e-02  7.5769e-04  0:00:49  650
   351  1.3423e-01  7.4222e-01  1.8320e-01  1.3461e-01  1.6253e-02  7.2998e-04  0:00:47  649
   352  1.3453e-01  7.4132e-01  1.8626e-01  1.3492e-01  1.6102e-02  7.1902e-04  0:00:46  648

  iter  continuity  x-velocity  y-velocity      energy           k       omega     time/iter
   353  1.3461e-01  7.4129e-01  1.8935e-01  1.3501e-01  1.5962e-02  7.1360e-04  0:00:45  647
   354  1.3445e-01  7.4048e-01  1.9326e-01  1.3487e-01  1.5843e-02  7.0957e-04  0:00:44  646
   355  1.3357e-01  7.3802e-01  1.9751e-01  1.3399e-01  1.5734e-02  7.0866e-04  0:00:43  645
   356  1.3237e-01  7.3409e-01  2.0262e-01  1.3279e-01  1.5643e-02  7.0764e-04  0:00:42  644
   357  1.2942e-01  7.2944e-01  2.0648e-01  1.2983e-01  1.5569e-02  7.0734e-04  0:00:42  643
   358  1.2712e-01  7.2527e-01  2.1037e-01  1.2751e-01  1.5507e-02  7.0784e-04  0:00:41  642
   359  1.2501e-01  7.1992e-01  2.1500e-01  1.2540e-01  1.5448e-02  7.2477e-04  0:00:41  641
   360  1.2289e-01  7.1402e-01  2.2003e-01  1.2327e-01  1.5406e-02  9.7708e-04  0:00:41  640
   361  1.2068e-01  7.0769e-01  2.2540e-01  1.2105e-01  1.5387e-02  1.0391e-03  0:00:40  639
   362  1.1833e-01  7.0085e-01  2.2995e-01  1.1868e-01  1.5368e-02  1.0846e-03  0:00:40  638
   363  1.1594e-01  6.9401e-01  2.3396e-01  1.1628e-01  1.5337e-02  1.1331e-03  0:00:40  637

  iter  continuity  x-velocity  y-velocity      energy           k       omega     time/iter
   364  1.1350e-01  6.8787e-01  2.3831e-01  1.1382e-01  1.5317e-02  1.1869e-03  0:00:40  636
   365  1.1106e-01  6.8213e-01  2.4228e-01  1.1137e-01  1.5305e-02  1.2323e-03  0:00:40  635
   366  1.0854e-01  6.7477e-01  2.4551e-01  1.0884e-01  1.5280e-02  1.2567e-03  0:00:40  634
   367  1.0604e-01  6.6818e-01  2.4824e-01  1.0633e-01  1.5247e-02  1.2793e-03  0:00:40  633
   368  1.0362e-01  6.6420e-01  2.5070e-01  1.0391e-01  1.5232e-02  1.2953e-03  0:00:39  632
   369  1.0129e-01  6.6009e-01  2.5259e-01  1.0156e-01  1.5220e-02  1.3000e-03  0:00:39  631
   370  9.9003e-02  6.5570e-01  2.5400e-01  9.9268e-02  1.5201e-02  1.3021e-03  0:00:39  630
   371  9.6785e-02  6.5291e-01  2.5507e-01  9.7045e-02  1.5188e-02  1.2880e-03  0:00:39  629
   372  9.4761e-02  6.5089e-01  2.5552e-01  9.5017e-02  1.5186e-02  1.2805e-03  0:00:39  628
   373  9.2896e-02  6.4850e-01  2.5569e-01  9.3148e-02  1.5186e-02  1.2580e-03  0:00:39  627
   374  9.1191e-02  6.4797e-01  2.5581e-01  9.1442e-02  1.5172e-02  1.2392e-03  0:00:39  626

  iter  continuity  x-velocity  y-velocity      energy           k       omega     time/iter
   375  8.9703e-02  6.4814e-01  2.5535e-01  8.9953e-02  1.5147e-02  1.2125e-03  0:00:39  625
   376  8.8348e-02  6.4747e-01  2.5466e-01  8.8600e-02  1.5113e-02  1.1935e-03  0:00:39  624
   377  8.7204e-02  6.4706e-01  2.5355e-01  8.7457e-02  1.5073e-02  1.1662e-03  0:00:39  623
   378  8.6212e-02  6.4688e-01  2.5227e-01  8.6466e-02  1.5017e-02  1.1411e-03  0:00:38  622
   379  8.5405e-02  6.4715e-01  2.5075e-01  8.5663e-02  1.4953e-02  1.1162e-03  0:00:38  621
   380  8.4748e-02  6.4626e-01  2.4889e-01  8.5007e-02  1.4887e-02  1.0906e-03  0:00:38  620
   381  8.4212e-02  6.4533e-01  2.4676e-01  8.4474e-02  1.4815e-02  1.1132e-03  0:00:38  619
   382  8.3808e-02  6.4469e-01  2.4435e-01  8.4073e-02  1.4740e-02  1.0721e-03  0:00:38  618
   383  8.3473e-02  6.4320e-01  2.4165e-01  8.3740e-02  1.4666e-02  1.0494e-03  0:00:38  617
   384  8.3237e-02  6.4085e-01  2.3893e-01  8.3504e-02  1.4596e-02  1.0357e-03  0:00:38  616
   385  8.3061e-02  6.3819e-01  2.3596e-01  8.3329e-02  1.4532e-02  1.0219e-03  0:00:38  615

  iter  continuity  x-velocity  y-velocity      energy           k       omega     time/iter
   386  8.2891e-02  6.3537e-01  2.3284e-01  8.3158e-02  1.4464e-02  1.0264e-03  0:00:38  614
   387  8.2733e-02  6.3164e-01  2.2954e-01  8.2997e-02  1.4397e-02  1.0294e-03  0:00:38  613
   388  8.2578e-02  6.2731e-01  2.2590e-01  8.2838e-02  1.4330e-02  1.0388e-03  0:00:38  612
   389  8.2431e-02  6.2309e-01  2.2228e-01  8.2687e-02  1.4266e-02  1.0545e-03  0:00:38  611
   390  8.2256e-02  6.1865e-01  2.1884e-01  8.2505e-02  1.4201e-02  1.0665e-03  0:00:37  610
   391  8.2164e-02  6.1433e-01  2.1551e-01  8.2405e-02  1.4141e-02  1.0836e-03  0:00:37  609
   392  8.1934e-02  6.0941e-01  2.1213e-01  8.2164e-02  1.4078e-02  1.0940e-03  0:00:37  608
   393  8.1717e-02  6.0432e-01  2.0921e-01  8.1934e-02  1.4026e-02  1.1111e-03  0:00:37  607
   394  8.1521e-02  5.9931e-01  2.0658e-01  8.1725e-02  1.3980e-02  1.1241e-03  0:00:37  606
   395  8.1431e-02  5.9489e-01  2.0396e-01  8.1620e-02  1.3934e-02  1.1362e-03  0:00:37  605
   396  8.1240e-02  5.9012e-01  2.0172e-01  8.1412e-02  1.3903e-02  1.1520e-03  0:00:38  604

  iter  continuity  x-velocity  y-velocity      energy           k       omega     time/iter
   397  8.1026e-02  5.8532e-01  2.0000e-01  8.1179e-02  1.3862e-02  1.1625e-03  0:00:38  603
   398  8.0854e-02  5.8155e-01  1.9881e-01  8.0989e-02  1.3827e-02  1.1753e-03  0:00:37  602
   399  8.0675e-02  5.7785e-01  1.9812e-01  8.0790e-02  1.3786e-02  1.1854e-03  0:00:37  601
   400  8.0516e-02  5.7470e-01  1.9800e-01  8.0611e-02  1.3744e-02  1.1908e-03  0:00:37  600
   401  8.0367e-02  5.7203e-01  1.9854e-01  8.0442e-02  1.3697e-02  1.2003e-03  0:00:37  599
   402  8.0231e-02  5.7008e-01  1.9952e-01  8.0285e-02  1.3651e-02  1.2042e-03  0:00:37  598
   403  8.0115e-02  5.6860e-01  2.0077e-01  8.0148e-02  1.3597e-02  1.2067e-03  0:00:37  597
   404  8.0002e-02  5.6729e-01  2.0237e-01  8.0014e-02  1.3538e-02  1.2140e-03  0:00:37  596
   405  7.9903e-02  5.6661e-01  2.0441e-01  7.9894e-02  1.3480e-02  1.2125e-03  0:00:38  595
   406  7.9841e-02  5.6662e-01  2.0640e-01  7.9813e-02  1.3420e-02  1.2096e-03  0:00:37  594
   407  7.9788e-02  5.6693e-01  2.0845e-01  7.9741e-02  1.3360e-02  1.2041e-03  0:00:37  593

  iter  continuity  x-velocity  y-velocity      energy           k       omega     time/iter
   408  7.9734e-02  5.6775e-01  2.1091e-01  7.9670e-02  1.3299e-02  1.2020e-03  0:00:37  592
   409  7.9725e-02  5.6949e-01  2.1326e-01  7.9646e-02  1.3230e-02  1.1970e-03  0:00:37  591
   410  7.9750e-02  5.7142e-01  2.1567e-01  7.9656e-02  1.3162e-02  1.1874e-03  0:00:36  590
   411  7.9786e-02  5.7327e-01  2.1814e-01  7.9679e-02  1.3095e-02  1.1810e-03  0:00:36  589
   412  7.9777e-02  5.7507e-01  2.2070e-01  7.9659e-02  1.3024e-02  1.1646e-03  0:00:36  588
   413  7.9763e-02  5.7697e-01  2.2334e-01  7.9635e-02  1.2953e-02  1.1513e-03  0:00:36  587
   414  7.9724e-02  5.7874e-01  2.2610e-01  7.9589e-02  1.2883e-02  1.1306e-03  0:00:36  586
   415  7.9635e-02  5.8063e-01  2.2915e-01  7.9495e-02  1.2812e-02  1.1062e-03  0:00:36  585
   416  7.9532e-02  5.8277e-01  2.3232e-01  7.9389e-02  1.2738e-02  1.0861e-03  0:00:36  584
   417  7.9439e-02  5.8483e-01  2.3543e-01  7.9296e-02  1.2665e-02  1.0677e-03  0:00:36  583
   418  7.9354e-02  5.8665e-01  2.3861e-01  7.9213e-02  1.2590e-02  1.0504e-03  0:00:36  582

  iter  continuity  x-velocity  y-velocity      energy           k       omega     time/iter
   419  7.9249e-02  5.8825e-01  2.4182e-01  7.9113e-02  1.2510e-02  1.0297e-03  0:00:36  581
   420  7.9106e-02  5.8958e-01  2.4502e-01  7.8977e-02  1.2430e-02  1.0151e-03  0:00:36  580
   421  7.8964e-02  5.9107e-01  2.4818e-01  7.8845e-02  1.2347e-02  9.9678e-04  0:00:36  579
   422  7.8796e-02  5.9267e-01  2.5126e-01  7.8691e-02  1.2255e-02  9.7966e-04  0:00:36  578
   423  7.8650e-02  5.9470e-01  2.5427e-01  7.8561e-02  1.2160e-02  9.7197e-04  0:00:36  577
   424  7.8557e-02  5.9699e-01  2.5696e-01  7.8487e-02  1.2064e-02  9.5429e-04  0:00:36  576
   425  7.8508e-02  5.9923e-01  2.5947e-01  7.8460e-02  1.1960e-02  9.8353e-04  0:00:36  575
   426  7.8499e-02  6.0176e-01  2.6177e-01  7.8475e-02  1.1850e-02  9.4473e-04  0:00:36  574
   427  7.8534e-02  6.0457e-01  2.6352e-01  7.8537e-02  1.1735e-02  9.2270e-04  0:00:35  573
   428  7.8645e-02  6.0765e-01  2.6499e-01  7.8678e-02  1.1619e-02  9.0907e-04  0:00:35  572
   429  7.8848e-02  6.1089e-01  2.6624e-01  7.8914e-02  1.1496e-02  8.9832e-04  0:00:35  571

  iter  continuity  x-velocity  y-velocity      energy           k       omega     time/iter
   430  7.9136e-02  6.1448e-01  2.6738e-01  7.9237e-02  1.1369e-02  8.9021e-04  0:00:35  570
   431  7.9540e-02  6.1855e-01  2.6834e-01  7.9678e-02  1.1239e-02  8.8483e-04  0:00:35  569
   432  8.0047e-02  6.2268e-01  2.6911e-01  8.0222e-02  1.1108e-02  8.9509e-04  0:00:35  568
   433  8.0642e-02  6.2653e-01  2.6967e-01  8.0855e-02  1.0975e-02  8.9439e-04  0:00:35  567
   434  8.1327e-02  6.3072e-01  2.6979e-01  8.1578e-02  1.0841e-02  9.0568e-04  0:00:35  566
   435  8.2068e-02  6.3472e-01  2.6979e-01  8.2356e-02  1.0705e-02  9.1737e-04  0:00:35  565
   436  8.2868e-02  6.3864e-01  2.6971e-01  8.3193e-02  1.0570e-02  9.2079e-04  0:00:35  564
   437  8.3710e-02  6.4241e-01  2.6959e-01  8.4070e-02  1.0430e-02  9.3366e-04  0:00:34  563
   438  8.4588e-02  6.4630e-01  2.6950e-01  8.4982e-02  1.0292e-02  9.4724e-04  0:00:34  562
   439  8.5473e-02  6.4993e-01  2.6932e-01  8.5898e-02  1.0152e-02  9.6973e-04  0:00:34  561
   440  8.6338e-02  6.5314e-01  2.6912e-01  8.6791e-02  1.0016e-02  9.8220e-04  0:00:34  560

  iter  continuity  x-velocity  y-velocity      energy           k       omega     time/iter
   441  8.7108e-02  6.5574e-01  2.6905e-01  8.7587e-02  9.8795e-03  1.0049e-03  0:00:34  559
   442  8.7782e-02  6.5806e-01  2.6894e-01  8.8281e-02  9.7452e-03  1.0269e-03  0:00:34  558
   443  8.8337e-02  6.5999e-01  2.6880e-01  8.8854e-02  9.6094e-03  1.0956e-03  0:00:34  557
   444  8.8770e-02  6.6147e-01  2.6867e-01  8.9299e-02  9.4769e-03  1.2100e-03  0:00:34  556
   445  8.9068e-02  6.6252e-01  2.6874e-01  8.9605e-02  9.3447e-03  1.2507e-03  0:00:34  555
   446  8.9233e-02  6.6321e-01  2.6883e-01  8.9774e-02  9.2150e-03  1.2892e-03  0:00:34  554
   447  8.9266e-02  6.6351e-01  2.6890e-01  8.9806e-02  9.0867e-03  1.3221e-03  0:00:34  553
   448  8.9188e-02  6.6348e-01  2.6902e-01  8.9723e-02  8.9601e-03  1.3521e-03  0:00:34  552
   449  8.9002e-02  6.6311e-01  2.6922e-01  8.9528e-02  8.8352e-03  1.3747e-03  0:00:34  551
   450  8.8710e-02  6.6243e-01  2.6950e-01  8.9222e-02  8.7125e-03  1.3907e-03  0:00:34  550
   451  8.8330e-02  6.6153e-01  2.6979e-01  8.8823e-02  8.5929e-03  1.4000e-03  0:00:34  549

  iter  continuity  x-velocity  y-velocity      energy           k       omega     time/iter
   452  8.7864e-02  6.6033e-01  2.7011e-01  8.8336e-02  8.4749e-03  1.4027e-03  0:00:33  548
   453  8.7325e-02  6.5902e-01  2.7056e-01  8.7772e-02  8.3597e-03  1.3978e-03  0:00:33  547
   454  8.6738e-02  6.5775e-01  2.7107e-01  8.7156e-02  8.2457e-03  1.3908e-03  0:00:33  546
   455  8.6131e-02  6.5657e-01  2.7157e-01  8.6519e-02  8.1336e-03  1.3743e-03  0:00:33  545
   456  8.5594e-02  6.5550e-01  2.7217e-01  8.5951e-02  8.0257e-03  1.3560e-03  0:00:33  544
   457  8.5021e-02  6.5424e-01  2.7288e-01  8.5345e-02  7.9197e-03  1.3351e-03  0:00:33  543
   458  8.4358e-02  6.5321e-01  2.7370e-01  8.4647e-02  7.8168e-03  1.3122e-03  0:00:33  542
   459  8.3778e-02  6.5253e-01  2.7458e-01  8.4032e-02  7.7162e-03  1.2879e-03  0:00:33  541
   460  8.3295e-02  6.5226e-01  2.7556e-01  8.3515e-02  7.6187e-03  1.2628e-03  0:00:33  540
   461  8.2915e-02  6.5236e-01  2.7658e-01  8.3105e-02  7.5240e-03  1.2520e-03  0:00:33  539
   462  8.2656e-02  6.5274e-01  2.7762e-01  8.2818e-02  7.4315e-03  1.2206e-03  0:00:33  538

  iter  continuity  x-velocity  y-velocity      energy           k       omega     time/iter
   463  8.2534e-02  6.5352e-01  2.7868e-01  8.2672e-02  7.3404e-03  1.1917e-03  0:00:33  537
   464  8.2575e-02  6.5473e-01  2.7963e-01  8.2694e-02  7.2520e-03  1.1661e-03  0:00:33  536
   465  8.2805e-02  6.5637e-01  2.8054e-01  8.2910e-02  7.1654e-03  1.1407e-03  0:00:33  535
   466  8.3237e-02  6.5838e-01  2.8131e-01  8.3335e-02  7.0812e-03  1.1161e-03  0:00:33  534
   467  8.3870e-02  6.6079e-01  2.8215e-01  8.3969e-02  6.9986e-03  1.0939e-03  0:00:33  533
   468  8.4707e-02  6.6361e-01  2.8300e-01  8.4813e-02  6.9178e-03  1.0738e-03  0:00:33  532
   469  8.5736e-02  6.6664e-01  2.8376e-01  8.5856e-02  6.8387e-03  1.0556e-03  0:00:32  531
   470  8.6943e-02  6.6991e-01  2.8445e-01  8.7082e-02  6.7605e-03  1.0384e-03  0:00:32  530
   471  8.8306e-02  6.7339e-01  2.8516e-01  8.8471e-02  6.6839e-03  1.0226e-03  0:00:32  529
   472  8.9791e-02  6.7694e-01  2.8577e-01  8.9985e-02  6.6086e-03  1.0085e-03  0:00:32  528
   473  9.1380e-02  6.8052e-01  2.8628e-01  9.1607e-02  6.5343e-03  9.9573e-04  0:00:32  527

  iter  continuity  x-velocity  y-velocity      energy           k       omega     time/iter
   474  9.3049e-02  6.8423e-01  2.8673e-01  9.3312e-02  6.4619e-03  9.8421e-04  0:00:32  526
   475  9.4774e-02  6.8785e-01  2.8711e-01  9.5075e-02  6.3916e-03  9.7400e-04  0:00:32  525
   476  9.6504e-02  6.9119e-01  2.8738e-01  9.6843e-02  6.3229e-03  9.6517e-04  0:00:32  524
   477  9.8219e-02  6.9430e-01  2.8760e-01  9.8597e-02  6.2557e-03  9.5774e-04  0:00:32  523
   478  9.9875e-02  6.9687e-01  2.8769e-01  1.0029e-01  6.1892e-03  9.5198e-04  0:00:32  522
   479  1.0145e-01  6.9880e-01  2.8772e-01  1.0190e-01  6.1233e-03  9.4780e-04  0:00:32  521
   480  1.0292e-01  7.0039e-01  2.8778e-01  1.0340e-01  6.0576e-03  9.4501e-04  0:00:32  520
   481  1.0429e-01  7.0165e-01  2.8772e-01  1.0481e-01  5.9933e-03  9.4375e-04  0:00:32  519
   482  1.0554e-01  7.0213e-01  2.8759e-01  1.0609e-01  5.9286e-03  9.4368e-04  0:00:32  518
   483  1.0664e-01  7.0185e-01  2.8749e-01  1.0721e-01  5.8652e-03  9.4448e-04  0:00:32  517
   484  1.0753e-01  7.0111e-01  2.8738e-01  1.0813e-01  5.8023e-03  9.5573e-04  0:00:32  516

  iter  continuity  x-velocity  y-velocity      energy           k       omega     time/iter
   485  1.0826e-01  6.9981e-01  2.8726e-01  1.0889e-01  5.7398e-03  9.5403e-04  0:00:32  515
   486  1.0880e-01  6.9761e-01  2.8715e-01  1.0944e-01  5.6773e-03  9.5194e-04  0:00:31  514
   487  1.0915e-01  6.9496e-01  2.8701e-01  1.0981e-01  5.6152e-03  9.5036e-04  0:00:31  513
   488  1.0933e-01  6.9183e-01  2.8690e-01  1.1000e-01  5.5536e-03  9.4915e-04  0:00:32  512
   489  1.0935e-01  6.8817e-01  2.8684e-01  1.1003e-01  5.4921e-03  9.4791e-04  0:00:32  511
   490  1.0912e-01  6.8397e-01  2.8681e-01  1.0981e-01  5.4309e-03  9.4645e-04  0:00:32  510
   491  1.0873e-01  6.7939e-01  2.8687e-01  1.0942e-01  5.3694e-03  9.4481e-04  0:00:31  509
   492  1.0817e-01  6.7440e-01  2.8699e-01  1.0887e-01  5.3090e-03  9.4255e-04  0:00:31  508
   493  1.0747e-01  6.6911e-01  2.8710e-01  1.0818e-01  5.2482e-03  9.3992e-04  0:00:31  507
   494  1.0662e-01  6.6360e-01  2.8714e-01  1.0732e-01  5.1887e-03  9.3852e-04  0:00:31  506
   495  1.0561e-01  6.5794e-01  2.8715e-01  1.0631e-01  5.1289e-03  9.3448e-04  0:00:31  505

  iter  continuity  x-velocity  y-velocity      energy           k       omega     time/iter
   496  1.0446e-01  6.5220e-01  2.8718e-01  1.0517e-01  5.0701e-03  9.2991e-04  0:00:31  504
   497  1.0314e-01  6.4652e-01  2.8722e-01  1.0385e-01  5.0112e-03  9.2523e-04  0:00:31  503
   498  1.0168e-01  6.4119e-01  2.8727e-01  1.0239e-01  4.9536e-03  9.2134e-04  0:00:31  502
   499  9.9914e-02  6.3579e-01  2.8729e-01  1.0062e-01  4.8957e-03  9.1595e-04  0:00:31  501
   500  9.8008e-02  6.3083e-01  2.8727e-01  9.8702e-02  4.8395e-03  9.1169e-04  0:00:31  500
   501  9.6019e-02  6.2636e-01  2.8718e-01  9.6705e-02  4.7833e-03  9.0591e-04  0:00:31  499
   502  9.3983e-02  6.2251e-01  2.8696e-01  9.4659e-02  4.7285e-03  9.0087e-04  0:00:31  498
   503  9.1933e-02  6.1936e-01  2.8671e-01  9.2598e-02  4.6741e-03  8.9693e-04  0:00:30  497
   504  8.9903e-02  6.1694e-01  2.8645e-01  9.0557e-02  4.6214e-03  8.9210e-04  0:00:31  496
   505  8.7933e-02  6.1532e-01  2.8612e-01  8.8576e-02  4.5686e-03  8.8924e-04  0:00:31  495
   506  8.6141e-02  6.1475e-01  2.8575e-01  8.6774e-02  4.5180e-03  8.8593e-04  0:00:31  494

  iter  continuity  x-velocity  y-velocity      energy           k       omega     time/iter
   507  8.4378e-02  6.1491e-01  2.8535e-01  8.5002e-02  4.4671e-03  8.8441e-04  0:00:30  493
   508  8.2750e-02  6.1603e-01  2.8494e-01  8.3365e-02  4.4177e-03  8.8532e-04  0:00:30  492
   509  8.1342e-02  6.1803e-01  2.8451e-01  8.1951e-02  4.3683e-03  8.8603e-04  0:00:30  491
   510  8.0167e-02  6.2081e-01  2.8401e-01  8.0770e-02  4.3203e-03  8.8889e-04  0:00:30  490
   511  7.9243e-02  6.2430e-01  2.8347e-01  7.9845e-02  4.2733e-03  8.9266e-04  0:00:30  489
   512  7.8595e-02  6.2851e-01  2.8300e-01  7.9198e-02  4.2276e-03  8.9571e-04  0:00:30  488
   513  7.8100e-02  6.3340e-01  2.8236e-01  7.8704e-02  4.1825e-03  9.0097e-04  0:00:30  487
   514  7.7870e-02  6.3871e-01  2.8189e-01  7.8479e-02  4.1381e-03  9.0775e-04  0:00:30  486
   515  7.7858e-02  6.4439e-01  2.8148e-01  7.8474e-02  4.0944e-03  9.1513e-04  0:00:30  485
   516  7.8027e-02  6.5033e-01  2.8105e-01  7.8652e-02  4.0517e-03  9.2308e-04  0:00:30  484
   517  7.8376e-02  6.5640e-01  2.8067e-01  7.9010e-02  4.0094e-03  9.3125e-04  0:00:30  483

  iter  continuity  x-velocity  y-velocity      energy           k       omega     time/iter
   518  7.8881e-02  6.6247e-01  2.8026e-01  7.9527e-02  3.9676e-03  9.4027e-04  0:00:29  482
   519  7.9516e-02  6.6841e-01  2.7979e-01  8.0175e-02  3.9266e-03  9.4954e-04  0:00:29  481
   520  8.0257e-02  6.7413e-01  2.7932e-01  8.0932e-02  3.8864e-03  9.5903e-04  0:00:29  480
   521  8.1073e-02  6.7945e-01  2.7896e-01  8.1764e-02  3.8467e-03  9.6830e-04  0:00:29  479
   522  8.1935e-02  6.8455e-01  2.7872e-01  8.2643e-02  3.8072e-03  9.7763e-04  0:00:29  478
   523  8.2824e-02  6.8914e-01  2.7863e-01  8.3550e-02  3.7685e-03  9.8676e-04  0:00:29  477
   524  8.3718e-02  6.9327e-01  2.7857e-01  8.4461e-02  3.7300e-03  9.9722e-04  0:00:29  476
   525  8.4692e-02  6.9697e-01  2.7856e-01  8.5455e-02  3.6922e-03  1.0055e-03  0:00:29  475
   526  8.5461e-02  6.9982e-01  2.7858e-01  8.6242e-02  3.6546e-03  1.0138e-03  0:00:29  474
   527  8.6268e-02  7.0227e-01  2.7860e-01  8.7067e-02  3.6173e-03  1.0230e-03  0:00:29  473
   528  8.6905e-02  7.0378e-01  2.7868e-01  8.7721e-02  3.5803e-03  1.0298e-03  0:00:29  472

  iter  continuity  x-velocity  y-velocity      energy           k       omega     time/iter
   529  8.7457e-02  7.0468e-01  2.7888e-01  8.8288e-02  3.5439e-03  1.0379e-03  0:00:29  471
   530  8.7960e-02  7.0501e-01  2.7907e-01  8.8807e-02  3.5079e-03  1.0449e-03  0:00:29  470
   531  8.8384e-02  7.0452e-01  2.7937e-01  8.9247e-02  3.4721e-03  1.0495e-03  0:00:29  469
   532  8.8712e-02  7.0323e-01  2.7967e-01  8.9589e-02  3.4367e-03  1.0547e-03  0:00:29  468
   533  8.8951e-02  7.0149e-01  2.7992e-01  8.9841e-02  3.4015e-03  1.0590e-03  0:00:29  467
   534  8.9094e-02  6.9931e-01  2.8009e-01  8.9997e-02  3.3664e-03  1.0623e-03  0:00:29  466
   535  8.9145e-02  6.9667e-01  2.8031e-01  9.0059e-02  3.3316e-03  1.0658e-03  0:00:29  465
   536  8.9085e-02  6.9343e-01  2.8062e-01  9.0008e-02  3.2971e-03  1.0664e-03  0:00:28  464
   537  8.8883e-02  6.8949e-01  2.8096e-01  8.9814e-02  3.2629e-03  1.0657e-03  0:00:28  463
   538  8.8565e-02  6.8508e-01  2.8128e-01  8.9502e-02  3.2294e-03  1.1031e-03  0:00:28  462
   539  8.8138e-02  6.8029e-01  2.8158e-01  8.9080e-02  3.1957e-03  1.0817e-03  0:00:28  461

  iter  continuity  x-velocity  y-velocity      energy           k       omega     time/iter
   540  8.7604e-02  6.7506e-01  2.8184e-01  8.8550e-02  3.1624e-03  1.0689e-03  0:00:28  460
   541  8.6986e-02  6.6976e-01  2.8206e-01  8.7934e-02  3.1298e-03  1.0614e-03  0:00:28  459
   542  8.6304e-02  6.6444e-01  2.8225e-01  8.7253e-02  3.0978e-03  1.0473e-03  0:00:28  458
   543  8.5594e-02  6.5898e-01  2.8243e-01  8.6544e-02  3.0659e-03  1.0313e-03  0:00:28  457
   544  8.4854e-02  6.5328e-01  2.8259e-01  8.5802e-02  3.0341e-03  1.0129e-03  0:00:28  456
   545  8.4074e-02  6.4748e-01  2.8275e-01  8.5021e-02  3.0019e-03  9.9157e-04  0:00:28  455
   546  8.3261e-02  6.4146e-01  2.8289e-01  8.4205e-02  2.9703e-03  9.6986e-04  0:00:28  454
   547  8.2383e-02  6.3526e-01  2.8302e-01  8.3324e-02  2.9392e-03  9.4841e-04  0:00:28  453
   548  8.1505e-02  6.2956e-01  2.8319e-01  8.2443e-02  2.9085e-03  9.2770e-04  0:00:28  452
   549  8.0621e-02  6.2388e-01  2.8338e-01  8.1554e-02  2.8780e-03  9.0594e-04  0:00:28  451
   550  7.9729e-02  6.1844e-01  2.8362e-01  8.0656e-02  2.8477e-03  8.8523e-04  0:00:28  450

  iter  continuity  x-velocity  y-velocity      energy           k       omega     time/iter
   551  7.8856e-02  6.1321e-01  2.8397e-01  7.9777e-02  2.8175e-03  8.6400e-04  0:00:28  449
   552  7.8016e-02  6.0795e-01  2.8432e-01  7.8931e-02  2.7878e-03  8.4619e-04  0:00:27  448
   553  7.7194e-02  6.0253e-01  2.8469e-01  7.8102e-02  2.7586e-03  8.2973e-04  0:00:27  447
   554  7.6383e-02  5.9723e-01  2.8525e-01  7.7285e-02  2.7299e-03  8.1231e-04  0:00:27  446
   555  7.5623e-02  5.9251e-01  2.8551e-01  7.6520e-02  2.7014e-03  7.9605e-04  0:00:27  445
   556  7.4924e-02  5.8801e-01  2.8591e-01  7.5815e-02  2.6733e-03  7.8064e-04  0:00:27  444
   557  7.4288e-02  5.8359e-01  2.8623e-01  7.5173e-02  2.6455e-03  7.6606e-04  0:00:27  443
   558  7.3724e-02  5.7947e-01  2.8688e-01  7.4604e-02  2.6182e-03  7.5223e-04  0:00:27  442
   559  7.3215e-02  5.7518e-01  2.8752e-01  7.4091e-02  2.5913e-03  7.3916e-04  0:00:27  441
   560  7.2735e-02  5.7084e-01  2.8814e-01  7.3607e-02  2.5652e-03  7.2656e-04  0:00:27  440
   561  7.2314e-02  5.6674e-01  2.8870e-01  7.3183e-02  2.5392e-03  7.1456e-04  0:00:27  439

  iter  continuity  x-velocity  y-velocity      energy           k       omega     time/iter
   562  7.1962e-02  5.6305e-01  2.8924e-01  7.2827e-02  2.5133e-03  7.0367e-04  0:00:27  438
   563  7.1676e-02  5.5955e-01  2.8981e-01  7.2538e-02  2.4880e-03  6.9349e-04  0:00:27  437
   564  7.1436e-02  5.5614e-01  2.9042e-01  7.2295e-02  2.4632e-03  6.8414e-04  0:00:27  436
   565  7.1242e-02  5.5251e-01  2.9106e-01  7.2098e-02  2.4387e-03  6.7236e-04  0:00:27  435
   566  7.1049e-02  5.4856e-01  2.9167e-01  7.1903e-02  2.4147e-03  6.6476e-04  0:00:27  434
   567  7.0930e-02  5.4490e-01  2.9204e-01  7.1781e-02  2.3912e-03  6.5796e-04  0:00:27  433
   568  7.0873e-02  5.4144e-01  2.9234e-01  7.1722e-02  2.3682e-03  6.4834e-04  0:00:26  432
   569  7.0832e-02  5.3802e-01  2.9279e-01  7.1679e-02  2.3458e-03  6.4310e-04  0:00:26  431
   570  7.0885e-02  5.3474e-01  2.9281e-01  7.1730e-02  2.3237e-03  6.3847e-04  0:00:26  430
   571  7.0844e-02  5.3119e-01  2.9298e-01  7.1685e-02  2.3021e-03  6.3053e-04  0:00:27  429
   572  7.0805e-02  5.2743e-01  2.9317e-01  7.1643e-02  2.2809e-03  6.2705e-04  0:00:27  428

  iter  continuity  x-velocity  y-velocity      energy           k       omega     time/iter
   573  7.0783e-02  5.2383e-01  2.9322e-01  7.1616e-02  2.2604e-03  6.2394e-04  0:00:27  427
   574  7.0793e-02  5.2009e-01  2.9317e-01  7.1622e-02  2.2405e-03  6.1700e-04  0:00:26  426
   575  7.0800e-02  5.1634e-01  2.9309e-01  7.1625e-02  2.2212e-03  6.1476e-04  0:00:26  425
   576  7.0799e-02  5.1273e-01  2.9294e-01  7.1619e-02  2.2022e-03  6.1295e-04  0:00:26  424
   577  7.0768e-02  5.0890e-01  2.9271e-01  7.1582e-02  2.1838e-03  6.0748e-04  0:00:26  423
   578  7.0704e-02  5.0448e-01  2.9254e-01  7.1511e-02  2.1656e-03  6.0713e-04  0:00:26  422
   579  7.0602e-02  4.9990e-01  2.9238e-01  7.1400e-02  2.1478e-03  6.0688e-04  0:00:26  421
   580  7.0478e-02  4.9527e-01  2.9226e-01  7.1267e-02  2.1305e-03  6.0224e-04  0:00:26  420
   581  7.0314e-02  4.9045e-01  2.9206e-01  7.1093e-02  2.1135e-03  6.0284e-04  0:00:26  419
   582  7.0108e-02  4.8539e-01  2.9191e-01  7.0875e-02  2.0969e-03  6.0310e-04  0:00:26  418
   583  6.9860e-02  4.8007e-01  2.9185e-01  7.0614e-02  2.0810e-03  6.0373e-04  0:00:26  417

  iter  continuity  x-velocity  y-velocity      energy           k       omega     time/iter
   584  6.9552e-02  4.7474e-01  2.9169e-01  7.0292e-02  2.0655e-03  6.0102e-04  0:00:25  416
   585  6.9191e-02  4.6898e-01  2.9167e-01  6.9916e-02  2.0504e-03  6.0209e-04  0:00:25  415
   586  6.8776e-02  4.6321e-01  2.9182e-01  6.9484e-02  2.0356e-03  6.0328e-04  0:00:25  414
   587  6.8313e-02  4.5739e-01  2.9197e-01  6.9003e-02  2.0215e-03  6.0428e-04  0:00:25  413
   588  6.7816e-02  4.5149e-01  2.9214e-01  6.8488e-02  2.0078e-03  6.0550e-04  0:00:26  412
   589  6.7277e-02  4.4570e-01  2.9234e-01  6.7930e-02  1.9947e-03  6.0610e-04  0:00:25  411
   590  6.6709e-02  4.3998e-01  2.9250e-01  6.7341e-02  1.9820e-03  6.0342e-04  0:00:25  410
   591  6.6110e-02  4.3429e-01  2.9265e-01  6.6722e-02  1.9699e-03  6.0484e-04  0:00:25  409
   592  6.5483e-02  4.2873e-01  2.9274e-01  6.6074e-02  1.9583e-03  6.0599e-04  0:00:25  408
   593  6.4832e-02  4.2327e-01  2.9275e-01  6.5401e-02  1.9473e-03  6.0726e-04  0:00:25  407
   594  6.4197e-02  4.1802e-01  2.9276e-01  6.4745e-02  1.9371e-03  6.0851e-04  0:00:25  406

  iter  continuity  x-velocity  y-velocity      energy           k       omega     time/iter
   595  6.3577e-02  4.1314e-01  2.9274e-01  6.4103e-02  1.9275e-03  6.0974e-04  0:00:25  405
   596  6.2938e-02  4.0873e-01  2.9272e-01  6.3444e-02  1.9182e-03  6.1116e-04  0:00:25  404
   597  6.2379e-02  4.0466e-01  2.9279e-01  6.2866e-02  1.9095e-03  6.1226e-04  0:00:25  403
   598  6.1836e-02  4.0094e-01  2.9285e-01  6.2305e-02  1.9010e-03  6.1304e-04  0:00:25  402
   599  6.1181e-02  3.9772e-01  2.9297e-01  6.1631e-02  1.8928e-03  6.1654e-04  0:00:25  401
   600  6.0519e-02  3.9504e-01  2.9311e-01  6.0952e-02  1.8851e-03  6.1594e-04  0:00:25  400
   601  5.9891e-02  3.9285e-01  2.9335e-01  6.0308e-02  1.8777e-03  6.1497e-04  0:00:24  399
   602  5.9374e-02  3.9127e-01  2.9362e-01  5.9778e-02  1.8706e-03  6.1375e-04  0:00:24  398
   603  5.8918e-02  3.9027e-01  2.9394e-01  5.9312e-02  1.8638e-03  6.1217e-04  0:00:24  397
   604  5.8556e-02  3.8982e-01  2.9429e-01  5.8943e-02  1.8572e-03  6.1024e-04  0:00:24  396
   605  5.8277e-02  3.8998e-01  2.9468e-01  5.8658e-02  1.8507e-03  6.1067e-04  0:00:24  395

  iter  continuity  x-velocity  y-velocity      energy           k       omega     time/iter
   606  5.8105e-02  3.9070e-01  2.9506e-01  5.8484e-02  1.8446e-03  6.0707e-04  0:00:24  394
   607  5.8045e-02  3.9198e-01  2.9543e-01  5.8425e-02  1.8386e-03  6.0310e-04  0:00:24  393
   608  5.8102e-02  3.9371e-01  2.9586e-01  5.8485e-02  1.8326e-03  5.9891e-04  0:00:24  392
   609  5.8292e-02  3.9579e-01  2.9632e-01  5.8682e-02  1.8269e-03  5.9690e-04  0:00:24  391
   610  5.8578e-02  3.9836e-01  2.9677e-01  5.8977e-02  1.8216e-03  5.9106e-04  0:00:24  390
   611  5.8969e-02  4.0125e-01  2.9728e-01  5.9379e-02  1.8164e-03  5.8496e-04  0:00:24  389
   612  5.9437e-02  4.0446e-01  2.9777e-01  5.9860e-02  1.8112e-03  5.8090e-04  0:00:24  388
   613  5.9930e-02  4.0795e-01  2.9821e-01  6.0367e-02  1.8064e-03  5.7272e-04  0:00:24  387
   614  6.0499e-02  4.1171e-01  2.9869e-01  6.0950e-02  1.8016e-03  5.6421e-04  0:00:24  386
   615  6.1119e-02  4.1562e-01  2.9919e-01  6.1585e-02  1.7971e-03  5.5565e-04  0:00:24  385
   616  6.1780e-02  4.1948e-01  2.9961e-01  6.2261e-02  1.7927e-03  5.4419e-04  0:00:24  384

  iter  continuity  x-velocity  y-velocity      energy           k       omega     time/iter
   617  6.2463e-02  4.2342e-01  3.0003e-01  6.2958e-02  1.7884e-03  5.3529e-04  0:00:24  383
   618  6.3171e-02  4.2741e-01  3.0047e-01  6.3681e-02  1.7844e-03  5.2854e-04  0:00:24  382
   619  6.3980e-02  4.3146e-01  3.0089e-01  6.4506e-02  1.7807e-03  5.2334e-04  0:00:24  381
   620  6.4660e-02  4.3521e-01  3.0132e-01  6.5199e-02  1.7771e-03  5.1913e-04  0:00:24  380
   621  6.5219e-02  4.3876e-01  3.0171e-01  6.5767e-02  1.7738e-03  5.1592e-04  0:00:23  379
   622  6.5761e-02  4.4215e-01  3.0204e-01  6.6317e-02  1.7703e-03  5.1322e-04  0:00:23  378
   623  6.6284e-02  4.4523e-01  3.0236e-01  6.6847e-02  1.7672e-03  5.1082e-04  0:00:47  377
   624  6.6759e-02  4.4795e-01  3.0259e-01  6.7327e-02  1.7642e-03  5.0859e-04  0:00:42  376
   625  6.7156e-02  4.5045e-01  3.0283e-01  6.7727e-02  1.7611e-03  5.0623e-04  0:00:38  375
   626  6.7471e-02  4.5275e-01  3.0311e-01  6.8043e-02  1.7580e-03  5.0371e-04  0:00:35  374
   627  6.7721e-02  4.5469e-01  3.0340e-01  6.8294e-02  1.7548e-03  5.0107e-04  0:00:33  373

  iter  continuity  x-velocity  y-velocity      energy           k       omega     time/iter
   628  6.7859e-02  4.5611e-01  3.0362e-01  6.8428e-02  1.7517e-03  4.9820e-04  0:00:31  372
   629  6.7863e-02  4.5707e-01  3.0381e-01  6.8428e-02  1.7486e-03  4.9531e-04  0:00:29  371
   630  6.7771e-02  4.5767e-01  3.0396e-01  6.8329e-02  1.7451e-03  4.9235e-04  0:00:28  370
   631  6.7570e-02  4.5792e-01  3.0408e-01  6.8118e-02  1.7419e-03  4.8936e-04  0:00:27  369
   632  6.7270e-02  4.5772e-01  3.0417e-01  6.7808e-02  1.7387e-03  4.8615e-04  0:00:26  368
   633  6.6882e-02  4.5712e-01  3.0425e-01  6.7407e-02  1.7355e-03  4.8275e-04  0:00:25  367
   634  6.6386e-02  4.5603e-01  3.0432e-01  6.6897e-02  1.7324e-03  4.7912e-04  0:00:25  366
   635  6.5814e-02  4.5452e-01  3.0432e-01  6.6309e-02  1.7293e-03  4.7542e-04  0:00:24  365
   636  6.5129e-02  4.5270e-01  3.0429e-01  6.5607e-02  1.7263e-03  4.7161e-04  0:00:24  364
   637  6.4345e-02  4.5062e-01  3.0432e-01  6.4805e-02  1.7234e-03  4.6785e-04  0:00:23  363
   638  6.3486e-02  4.4818e-01  3.0435e-01  6.3927e-02  1.7206e-03  4.6425e-04  0:00:23  362

  iter  continuity  x-velocity  y-velocity      energy           k       omega     time/iter
   639  6.2549e-02  4.4553e-01  3.0437e-01  6.2970e-02  1.7180e-03  4.6075e-04  0:00:23  361
   640  6.1516e-02  4.4271e-01  3.0436e-01  6.1916e-02  1.7157e-03  4.5714e-04  0:00:23  360
   641  6.0425e-02  4.3970e-01  3.0436e-01  6.0803e-02  1.7133e-03  4.5349e-04  0:00:23  359
   642  5.9309e-02  4.3659e-01  3.0436e-01  5.9667e-02  1.7108e-03  4.4986e-04  0:00:22  358
   643  5.8196e-02  4.3348e-01  3.0436e-01  5.8532e-02  1.7084e-03  4.4619e-04  0:00:22  357
   644  5.7093e-02  4.3038e-01  3.0431e-01  5.7408e-02  1.7059e-03  4.4250e-04  0:00:22  356
   645  5.5959e-02  4.2729e-01  3.0427e-01  5.6254e-02  1.7036e-03  4.3878e-04  0:00:22  355
   646  5.4828e-02  4.2424e-01  3.0425e-01  5.5103e-02  1.7013e-03  4.3522e-04  0:00:22  354
   647  5.3723e-02  4.2126e-01  3.0424e-01  5.3979e-02  1.6989e-03  4.3191e-04  0:00:22  353
   648  5.2646e-02  4.1846e-01  3.0426e-01  5.2882e-02  1.6966e-03  4.2875e-04  0:00:22  352
   649  5.1615e-02  4.1583e-01  3.0431e-01  5.1834e-02  1.6941e-03  4.2588e-04  0:00:22  351

  iter  continuity  x-velocity  y-velocity      energy           k       omega     time/iter
   650  5.0630e-02  4.1340e-01  3.0439e-01  5.0831e-02  1.6916e-03  4.2313e-04  0:00:22  350
   651  4.9681e-02  4.1119e-01  3.0454e-01  4.9866e-02  1.6896e-03  4.2067e-04  0:00:22  349
   652  4.8858e-02  4.0934e-01  3.0468e-01  4.9029e-02  1.6878e-03  4.1860e-04  0:00:22  348
   653  4.7902e-02  4.0731e-01  3.0487e-01  4.8057e-02  1.6862e-03  4.1685e-04  0:00:21  347
   654  4.7198e-02  4.0589e-01  3.0506e-01  4.7342e-02  1.6848e-03  4.1528e-04  0:00:21  346
   655  4.6348e-02  4.0450e-01  3.0531e-01  4.6477e-02  1.6834e-03  4.1411e-04  0:00:21  345
   656  4.5507e-02  4.0342e-01  3.0557e-01  4.5621e-02  1.6820e-03  4.1323e-04  0:00:21  344
   657  4.4772e-02  4.0277e-01  3.0583e-01  4.4873e-02  1.6807e-03  4.1253e-04  0:00:22  343
   658  4.4099e-02  4.0226e-01  3.0603e-01  4.4189e-02  1.6795e-03  4.1212e-04  0:00:21  342
   659  4.3488e-02  4.0187e-01  3.0630e-01  4.3568e-02  1.6785e-03  4.1176e-04  0:00:21  341
   660  4.2937e-02  4.0177e-01  3.0657e-01  4.3008e-02  1.6776e-03  4.1171e-04  0:00:21  340

  iter  continuity  x-velocity  y-velocity      energy           k       omega     time/iter
   661  4.2444e-02  4.0193e-01  3.0681e-01  4.2506e-02  1.6768e-03  4.1166e-04  0:00:21  339
   662  4.1992e-02  4.0216e-01  3.0693e-01  4.2046e-02  1.6761e-03  4.1162e-04  0:00:21  338
   663  4.1601e-02  4.0265e-01  3.0707e-01  4.1648e-02  1.6755e-03  4.1148e-04  0:00:21  337
   664  4.1258e-02  4.0338e-01  3.0718e-01  4.1298e-02  1.6748e-03  4.1145e-04  0:00:21  336
   665  4.0960e-02  4.0431e-01  3.0724e-01  4.0993e-02  1.6742e-03  4.1157e-04  0:00:21  335
   666  4.0700e-02  4.0557e-01  3.0727e-01  4.0727e-02  1.6740e-03  4.1210e-04  0:00:21  334
   667  4.0483e-02  4.0718e-01  3.0730e-01  4.0504e-02  1.6737e-03  4.1301e-04  0:00:21  333
   668  4.0305e-02  4.0904e-01  3.0727e-01  4.0322e-02  1.6735e-03  4.1399e-04  0:00:20  332
   669  4.0169e-02  4.1107e-01  3.0719e-01  4.0181e-02  1.6734e-03  4.1535e-04  0:00:20  331
   670  4.0076e-02  4.1324e-01  3.0706e-01  4.0085e-02  1.6735e-03  4.1705e-04  0:00:20  330
   671  4.0017e-02  4.1546e-01  3.0689e-01  4.0022e-02  1.6735e-03  4.1908e-04  0:00:20  329

  iter  continuity  x-velocity  y-velocity      energy           k       omega     time/iter
   672  3.9987e-02  4.1792e-01  3.0669e-01  3.9990e-02  1.6734e-03  4.2148e-04  0:00:20  328
   673  3.9983e-02  4.2055e-01  3.0645e-01  3.9984e-02  1.6734e-03  4.2421e-04  0:00:21  327
   674  4.0019e-02  4.2330e-01  3.0617e-01  4.0019e-02  1.6735e-03  4.2768e-04  0:00:21  326
   675  4.0082e-02  4.2619e-01  3.0588e-01  4.0081e-02  1.6737e-03  4.3144e-04  0:00:20  325
   676  4.0173e-02  4.2914e-01  3.0556e-01  4.0172e-02  1.6740e-03  4.3514e-04  0:00:20  324
   677  4.0274e-02  4.3198e-01  3.0525e-01  4.0273e-02  1.6743e-03  4.3870e-04  0:00:20  323
   678  4.0389e-02  4.3500e-01  3.0493e-01  4.0390e-02  1.6746e-03  4.4221e-04  0:00:20  322
   679  4.0510e-02  4.3801e-01  3.0462e-01  4.0511e-02  1.6747e-03  4.4563e-04  0:00:20  321
   680  4.0636e-02  4.4104e-01  3.0431e-01  4.0639e-02  1.6748e-03  4.4908e-04  0:00:20  320
   681  4.0760e-02  4.4417e-01  3.0398e-01  4.0765e-02  1.6750e-03  4.5260e-04  0:00:20  319
   682  4.0882e-02  4.4736e-01  3.0352e-01  4.0888e-02  1.6754e-03  4.5614e-04  0:00:20  318

  iter  continuity  x-velocity  y-velocity      energy           k       omega     time/iter
   683  4.0988e-02  4.5040e-01  3.0305e-01  4.0998e-02  1.6759e-03  4.5958e-04  0:00:20  317
   684  4.1085e-02  4.5345e-01  3.0262e-01  4.1098e-02  1.6764e-03  4.6300e-04  0:00:19  316
   685  4.1167e-02  4.5648e-01  3.0221e-01  4.1183e-02  1.6768e-03  4.6647e-04  0:00:19  315
   686  4.1241e-02  4.5946e-01  3.0181e-01  4.1261e-02  1.6772e-03  4.6990e-04  0:00:19  314
   687  4.1299e-02  4.6238e-01  3.0138e-01  4.1323e-02  1.6774e-03  4.7325e-04  0:00:19  313
   688  4.1341e-02  4.6525e-01  3.0093e-01  4.1369e-02  1.6775e-03  4.7646e-04  0:00:19  312
   689  4.1355e-02  4.6788e-01  3.0050e-01  4.1388e-02  1.6776e-03  4.7966e-04  0:00:19  311
   690  4.1349e-02  4.7052e-01  3.0010e-01  4.1386e-02  1.6776e-03  4.8289e-04  0:00:19  310
   691  4.1319e-02  4.7319e-01  2.9970e-01  4.1361e-02  1.6777e-03  4.8599e-04  0:00:19  309
   692  4.1257e-02  4.7584e-01  2.9932e-01  4.1303e-02  1.6778e-03  4.8897e-04  0:00:19  308
   693  4.1164e-02  4.7840e-01  2.9894e-01  4.1215e-02  1.6776e-03  4.9168e-04  0:00:19  307

  iter  continuity  x-velocity  y-velocity      energy           k       omega     time/iter
   694  4.1037e-02  4.8047e-01  2.9858e-01  4.1091e-02  1.6772e-03  4.9427e-04  0:00:19  306
   695  4.0876e-02  4.8247e-01  2.9824e-01  4.0934e-02  1.6768e-03  4.9650e-04  0:00:19  305
   696  4.0675e-02  4.8439e-01  2.9792e-01  4.0736e-02  1.6764e-03  4.9845e-04  0:00:19  304
   697  4.0440e-02  4.8621e-01  2.9759e-01  4.0505e-02  1.6759e-03  5.0027e-04  0:00:18  303
   698  4.0170e-02  4.8800e-01  2.9725e-01  4.0238e-02  1.6754e-03  5.0199e-04  0:00:18  302
   699  3.9877e-02  4.8956e-01  2.9690e-01  3.9948e-02  1.6749e-03  5.0354e-04  0:00:18  301
   700  3.9572e-02  4.9097e-01  2.9662e-01  3.9646e-02  1.6742e-03  5.0502e-04  0:00:18  300
   701  3.9242e-02  4.9242e-01  2.9634e-01  3.9319e-02  1.6734e-03  5.0651e-04  0:00:18  299
   702  3.8881e-02  4.9376e-01  2.9600e-01  3.8960e-02  1.6728e-03  5.0803e-04  0:00:18  298
[...]
   854  2.6751e-02  4.1014e-01  3.4101e-01  2.6588e-02  1.1893e-03  3.3408e-04  0:00:09  146
   855  2.6629e-02  4.1363e-01  3.4075e-01  2.6446e-02  1.1835e-03  3.3382e-04  0:00:09  145
   856  2.6565e-02  4.1726e-01  3.4043e-01  2.6363e-02  1.1779e-03  3.3370e-04  0:00:09  144
   857  2.6576e-02  4.2101e-01  3.4001e-01  2.6356e-02  1.1724e-03  3.3368e-04  0:00:09  143
   858  2.6655e-02  4.2488e-01  3.3949e-01  2.6419e-02  1.1669e-03  3.3376e-04  0:00:09  142

  iter  continuity  x-velocity  y-velocity      energy           k       omega     time/iter
   859  2.6790e-02  4.2860e-01  3.3880e-01  2.6540e-02  1.1615e-03  3.3386e-04  0:00:09  141
   860  2.7020e-02  4.3247e-01  3.3824e-01  2.6760e-02  1.1562e-03  3.3403e-04  0:00:09  140
   861  2.7342e-02  4.3653e-01  3.3762e-01  2.7074e-02  1.1509e-03  3.3431e-04  0:00:09  139
   862  2.7739e-02  4.4070e-01  3.3701e-01  2.7465e-02  1.1457e-03  3.3467e-04  0:00:08  138
   863  2.8210e-02  4.4489e-01  3.3644e-01  2.7933e-02  1.1406e-03  3.3506e-04  0:00:08  137
   864  2.8748e-02  4.4906e-01  3.3587e-01  2.8471e-02  1.1357e-03  3.3557e-04  0:00:08  136
   865  2.9353e-02  4.5306e-01  3.3533e-01  2.9080e-02  1.1308e-03  3.3611e-04  0:00:08  135
   866  3.0014e-02  4.5708e-01  3.3483e-01  2.9747e-02  1.1260e-03  3.3663e-04  0:00:08  134
   867  3.0722e-02  4.6113e-01  3.3429e-01  3.0462e-02  1.1211e-03  3.3721e-04  0:00:08  133
   868  3.1471e-02  4.6509e-01  3.3378e-01  3.1220e-02  1.1164e-03  3.3781e-04  0:00:08  132
   869  3.2250e-02  4.6894e-01  3.3324e-01  3.2009e-02  1.1118e-03  3.3846e-04  0:00:08  131

  iter  continuity  x-velocity  y-velocity      energy           k       omega     time/iter
   870  3.3057e-02  4.7219e-01  3.3271e-01  3.2828e-02  1.1073e-03  3.3909e-04  0:00:08  130
   871  3.3877e-02  4.7518e-01  3.3214e-01  3.3661e-02  1.1030e-03  3.3981e-04  0:00:08  129
   872  3.4705e-02  4.7814e-01  3.3151e-01  3.4503e-02  1.0989e-03  3.4049e-04  0:00:08  128
   873  3.5532e-02  4.8096e-01  3.3087e-01  3.5344e-02  1.0950e-03  3.4116e-04  0:00:08  127
   874  3.6360e-02  4.8367e-01  3.3018e-01  3.6186e-02  1.0911e-03  3.4169e-04  0:00:08  126
   875  3.7180e-02  4.8630e-01  3.2948e-01  3.7021e-02  1.0875e-03  3.4212e-04  0:00:08  125
   876  3.7989e-02  4.8865e-01  3.2875e-01  3.7844e-02  1.0838e-03  3.4250e-04  0:00:08  124
   877  3.8776e-02  4.9077e-01  3.2800e-01  3.8646e-02  1.0803e-03  3.4284e-04  0:00:07  123
   878  3.9538e-02  4.9278e-01  3.2725e-01  3.9423e-02  1.0770e-03  3.4326e-04  0:00:07  122
   879  4.0248e-02  4.9442e-01  3.2656e-01  4.0147e-02  1.0736e-03  3.4365e-04  0:00:07  121
   880  4.0917e-02  4.9571e-01  3.2597e-01  4.0829e-02  1.0701e-03  3.4395e-04  0:00:07  120

  iter  continuity  x-velocity  y-velocity      energy           k       omega     time/iter
   881  4.1546e-02  4.9644e-01  3.2547e-01  4.1471e-02  1.0672e-03  3.4408e-04  0:00:07  119
   882  4.2127e-02  4.9652e-01  3.2505e-01  4.2067e-02  1.0642e-03  3.4401e-04  0:00:07  118
   883  4.2778e-02  4.9650e-01  3.2467e-01  4.2734e-02  1.0610e-03  3.4366e-04  0:00:07  117
   884  4.3180e-02  4.9606e-01  3.2423e-01  4.3147e-02  1.0580e-03  3.4391e-04  0:00:07  116
   885  4.3557e-02  4.9561e-01  3.2384e-01  4.3534e-02  1.0550e-03  3.4382e-04  0:00:07  115
   886  4.3980e-02  4.9497e-01  3.2344e-01  4.3971e-02  1.0522e-03  3.4352e-04  0:00:07  114
   887  4.4214e-02  4.9373e-01  3.2300e-01  4.4214e-02  1.0493e-03  3.4339e-04  0:00:07  113
   888  4.4381e-02  4.9245e-01  3.2262e-01  4.4390e-02  1.0464e-03  3.4324e-04  0:00:07  112
   889  4.4501e-02  4.9097e-01  3.2209e-01  4.4519e-02  1.0436e-03  3.4309e-04  0:00:07  111
   890  4.4558e-02  4.8933e-01  3.2146e-01  4.4585e-02  1.0409e-03  3.4284e-04  0:00:07  110
   891  4.4548e-02  4.8752e-01  3.2081e-01  4.4582e-02  1.0383e-03  3.4247e-04  0:00:07  109

  iter  continuity  x-velocity  y-velocity      energy           k       omega     time/iter
   892  4.4465e-02  4.8549e-01  3.2011e-01  4.4507e-02  1.0356e-03  3.4214e-04  0:00:07  108
   893  4.4285e-02  4.8328e-01  3.1941e-01  4.4332e-02  1.0329e-03  3.4187e-04  0:00:07  107
   894  4.4032e-02  4.8076e-01  3.1873e-01  4.4084e-02  1.0301e-03  3.4148e-04  0:00:06  106
   895  4.3707e-02  4.7809e-01  3.1802e-01  4.3763e-02  1.0275e-03  3.4102e-04  0:00:06  105
   896  4.3305e-02  4.7510e-01  3.1727e-01  4.3365e-02  1.0250e-03  3.4037e-04  0:00:06  104
   897  4.2826e-02  4.7146e-01  3.1657e-01  4.2889e-02  1.0226e-03  3.3962e-04  0:00:06  103
   898  4.2269e-02  4.6764e-01  3.1589e-01  4.2335e-02  1.0203e-03  3.3900e-04  0:00:06  102
   899  4.1634e-02  4.6377e-01  3.1532e-01  4.1702e-02  1.0179e-03  3.3837e-04  0:00:06  101
   900  4.0921e-02  4.5984e-01  3.1482e-01  4.0990e-02  1.0156e-03  3.3754e-04  0:00:06  100
   901  4.0131e-02  4.5575e-01  3.1428e-01  4.0202e-02  1.0135e-03  3.3646e-04  0:00:06   99
   902  3.9275e-02  4.5154e-01  3.1378e-01  3.9346e-02  1.0113e-03  3.3520e-04  0:00:06   98

  iter  continuity  x-velocity  y-velocity      energy           k       omega     time/iter
   903  3.8353e-02  4.4739e-01  3.1350e-01  3.8426e-02  1.0090e-03  3.3389e-04  0:00:12   97
   904  3.7370e-02  4.4323e-01  3.1313e-01  3.7444e-02  1.0068e-03  3.3260e-04  0:00:11   96
   905  3.6324e-02  4.3932e-01  3.1281e-01  3.6398e-02  1.0047e-03  3.3130e-04  0:00:10   95
   906  3.5219e-02  4.3550e-01  3.1248e-01  3.5293e-02  1.0024e-03  3.2975e-04  0:00:09   94
   907  3.4062e-02  4.3165e-01  3.1212e-01  3.4137e-02  1.0001e-03  3.2811e-04  0:00:08   93
   908  3.2866e-02  4.2804e-01  3.1175e-01  3.2940e-02  9.9793e-04  3.2660e-04  0:00:08   92
   909  3.1628e-02  4.2478e-01  3.1135e-01  3.1703e-02  9.9577e-04  3.2521e-04  0:00:07   91
   910  3.0349e-02  4.2177e-01  3.1105e-01  3.0425e-02  9.9339e-04  3.2364e-04  0:00:07   90
   911  2.9053e-02  4.1912e-01  3.1078e-01  2.9131e-02  9.9094e-04  3.2189e-04  0:00:06   89
   912  2.7755e-02  4.1688e-01  3.1057e-01  2.7835e-02  9.8842e-04  3.2010e-04  0:00:06   88
   913  2.6469e-02  4.1516e-01  3.1037e-01  2.6552e-02  9.8597e-04  3.1822e-04  0:00:06   87

  iter  continuity  x-velocity  y-velocity      energy           k       omega     time/iter
   914  2.5207e-02  4.1396e-01  3.1020e-01  2.5294e-02  9.8366e-04  3.1649e-04  0:00:06   86
   915  2.3982e-02  4.1313e-01  3.1002e-01  2.4075e-02  9.8140e-04  3.1476e-04  0:00:06   85
   916  2.2814e-02  4.1278e-01  3.0988e-01  2.2915e-02  9.7927e-04  3.1293e-04  0:00:05   84
   917  2.1727e-02  4.1275e-01  3.0971e-01  2.1837e-02  9.7717e-04  3.1099e-04  0:00:05   83
   918  2.0749e-02  4.1287e-01  3.0957e-01  2.0871e-02  9.7516e-04  3.0911e-04  0:00:05   82
   919  1.9884e-02  4.1332e-01  3.0941e-01  2.0019e-02  9.7318e-04  3.0724e-04  0:00:05   81
   920  1.9161e-02  4.1392e-01  3.0923e-01  1.9311e-02  9.7114e-04  3.0549e-04  0:00:05   80
   921  1.8620e-02  4.1485e-01  3.0896e-01  1.8788e-02  9.6913e-04  3.0388e-04  0:00:05   79
   922  1.8279e-02  4.1617e-01  3.0854e-01  1.8465e-02  9.6711e-04  3.0228e-04  0:00:05   78
   923  1.8139e-02  4.1791e-01  3.0809e-01  1.8344e-02  9.6504e-04  3.0080e-04  0:00:05   77
   924  1.8202e-02  4.1987e-01  3.0762e-01  1.8426e-02  9.6292e-04  2.9933e-04  0:00:05   76

  iter  continuity  x-velocity  y-velocity      energy           k       omega     time/iter
   925  1.8478e-02  4.2195e-01  3.0716e-01  1.8720e-02  9.6085e-04  2.9795e-04  0:00:05   75
   926  1.8946e-02  4.2431e-01  3.0669e-01  1.9204e-02  9.5883e-04  2.9679e-04  0:00:05   74
   927  1.9580e-02  4.2695e-01  3.0618e-01  1.9853e-02  9.5682e-04  2.9570e-04  0:00:05   73
   928  2.0361e-02  4.2983e-01  3.0567e-01  2.0648e-02  9.5463e-04  2.9470e-04  0:00:04   72
   929  2.1261e-02  4.3289e-01  3.0522e-01  2.1560e-02  9.5245e-04  2.9363e-04  0:00:04   71
   930  2.2249e-02  4.3585e-01  3.0484e-01  2.2560e-02  9.5039e-04  2.9263e-04  0:00:04   70
   931  2.3292e-02  4.3856e-01  3.0447e-01  2.3614e-02  9.4832e-04  2.9168e-04  0:00:04   69
   932  2.4385e-02  4.4115e-01  3.0423e-01  2.4716e-02  9.4624e-04  2.9081e-04  0:00:04   68
   933  2.5512e-02  4.4382e-01  3.0408e-01  2.5852e-02  9.4437e-04  2.9006e-04  0:00:04   67
   934  2.6647e-02  4.4657e-01  3.0385e-01  2.6995e-02  9.4252e-04  2.8940e-04  0:00:04   66
   935  2.7773e-02  4.4928e-01  3.0361e-01  2.8129e-02  9.4063e-04  2.8889e-04  0:00:04   65

  iter  continuity  x-velocity  y-velocity      energy           k       omega     time/iter
   936  2.8885e-02  4.5183e-01  3.0354e-01  2.9249e-02  9.3877e-04  2.8848e-04  0:00:04   64
   937  2.9970e-02  4.5418e-01  3.0350e-01  3.0340e-02  9.3695e-04  2.8821e-04  0:00:04   63
   938  3.1022e-02  4.5628e-01  3.0344e-01  3.1398e-02  9.3528e-04  2.8800e-04  0:00:04   62
   939  3.2042e-02  4.5810e-01  3.0337e-01  3.2424e-02  9.3359e-04  2.8787e-04  0:00:04   61
   940  3.3014e-02  4.5975e-01  3.0327e-01  3.3401e-02  9.3185e-04  2.8773e-04  0:00:04   60
   941  3.3931e-02  4.6125e-01  3.0305e-01  3.4324e-02  9.3011e-04  2.8756e-04  0:00:04   59
   942  3.4793e-02  4.6254e-01  3.0279e-01  3.5190e-02  9.2833e-04  2.8746e-04  0:00:04   58
   943  3.5591e-02  4.6368e-01  3.0252e-01  3.5992e-02  9.2674e-04  2.8748e-04  0:00:04   57
   944  3.6333e-02  4.6457e-01  3.0222e-01  3.6737e-02  9.2516e-04  2.8760e-04  0:00:03   56
   945  3.7014e-02  4.6514e-01  3.0188e-01  3.7421e-02  9.2370e-04  2.8775e-04  0:00:03   55
   946  3.7632e-02  4.6540e-01  3.0150e-01  3.8041e-02  9.2224e-04  2.8789e-04  0:00:03   54

  iter  continuity  x-velocity  y-velocity      energy           k       omega     time/iter
   947  3.8178e-02  4.6548e-01  3.0101e-01  3.8588e-02  9.2071e-04  2.8800e-04  0:00:03   53
   948  3.8659e-02  4.6516e-01  3.0055e-01  3.9071e-02  9.1918e-04  2.8811e-04  0:00:03   52
   949  3.9071e-02  4.6445e-01  3.0003e-01  3.9483e-02  9.1775e-04  2.8819e-04  0:00:03   51
   950  3.9414e-02  4.6345e-01  2.9961e-01  3.9826e-02  9.1642e-04  2.8840e-04  0:00:03   50
   951  3.9686e-02  4.6207e-01  2.9920e-01  4.0095e-02  9.1520e-04  2.8858e-04  0:00:03   49
   952  3.9887e-02  4.6041e-01  2.9889e-01  4.0294e-02  9.1398e-04  2.8867e-04  0:00:03   48
   953  4.0017e-02  4.5839e-01  2.9858e-01  4.0422e-02  9.1273e-04  2.8867e-04  0:00:03   47
   954  4.0077e-02  4.5591e-01  2.9831e-01  4.0479e-02  9.1147e-04  2.8854e-04  0:00:03   46
   955  4.0070e-02  4.5313e-01  2.9813e-01  4.0467e-02  9.1020e-04  2.8844e-04  0:00:03   45
   956  3.9993e-02  4.5005e-01  2.9799e-01  4.0385e-02  9.0893e-04  2.8825e-04  0:00:03   44
   957  3.9845e-02  4.4674e-01  2.9781e-01  4.0231e-02  9.0765e-04  2.8796e-04  0:00:03   43

  iter  continuity  x-velocity  y-velocity      energy           k       omega     time/iter
   958  3.9642e-02  4.4314e-01  2.9772e-01  4.0020e-02  9.0636e-04  2.8777e-04  0:00:03   42
   959  3.9384e-02  4.3948e-01  2.9752e-01  3.9755e-02  9.0496e-04  2.8767e-04  0:00:03   41
   960  3.9062e-02  4.3578e-01  2.9719e-01  3.9424e-02  9.0365e-04  2.8770e-04  0:00:02   40
   961  3.8681e-02  4.3212e-01  2.9691e-01  3.9035e-02  9.0237e-04  2.8781e-04  0:00:02   39
   962  3.8244e-02  4.2842e-01  2.9657e-01  3.8587e-02  9.0101e-04  2.8772e-04  0:00:02   38
   963  3.7750e-02  4.2476e-01  2.9618e-01  3.8082e-02  8.9949e-04  2.8750e-04  0:00:02   37
   964  3.7201e-02  4.2108e-01  2.9563e-01  3.7522e-02  8.9789e-04  2.8727e-04  0:00:02   36
   965  3.6602e-02  4.1742e-01  2.9502e-01  3.6911e-02  8.9623e-04  2.8716e-04  0:00:02   35
   966  3.5956e-02  4.1378e-01  2.9444e-01  3.6252e-02  8.9461e-04  2.8698e-04  0:00:02   34
   967  3.5267e-02  4.1007e-01  2.9387e-01  3.5550e-02  8.9304e-04  2.8671e-04  0:00:02   33
   968  3.4535e-02  4.0632e-01  2.9335e-01  3.4804e-02  8.9145e-04  2.8631e-04  0:00:02   32

  iter  continuity  x-velocity  y-velocity      energy           k       omega     time/iter
   969  3.3769e-02  4.0267e-01  2.9284e-01  3.4023e-02  8.8987e-04  2.8581e-04  0:00:02   31
   970  3.2969e-02  3.9893e-01  2.9235e-01  3.3207e-02  8.8822e-04  2.8529e-04  0:00:02   30
   971  3.2140e-02  3.9521e-01  2.9193e-01  3.2362e-02  8.8649e-04  2.8475e-04  0:00:02   29
   972  3.1279e-02  3.9161e-01  2.9159e-01  3.1484e-02  8.8476e-04  2.8419e-04  0:00:02   28
   973  3.0396e-02  3.8816e-01  2.9102e-01  3.0583e-02  8.8304e-04  2.8367e-04  0:00:02   27
   974  2.9679e-02  3.8484e-01  2.9044e-01  2.9852e-02  8.8118e-04  2.8318e-04  0:00:02   26
   975  2.8894e-02  3.8125e-01  2.8999e-01  2.9052e-02  8.7923e-04  2.8270e-04  0:00:02   25
   976  2.7779e-02  3.7746e-01  2.8974e-01  2.7914e-02  8.7738e-04  2.8216e-04  0:00:01   24
   977  2.6751e-02  3.7379e-01  2.8951e-01  2.6864e-02  8.7537e-04  2.8153e-04  0:00:01   23
   978  2.5763e-02  3.7034e-01  2.8927e-01  2.5856e-02  8.7329e-04  2.8079e-04  0:00:01   22
   979  2.4782e-02  3.6712e-01  2.8902e-01  2.4855e-02  8.7128e-04  2.7998e-04  0:00:01   21

  iter  continuity  x-velocity  y-velocity      energy           k       omega     time/iter
   980  2.3809e-02  3.6407e-01  2.8878e-01  2.3862e-02  8.6915e-04  2.7914e-04  0:00:01   20
   981  2.2855e-02  3.6105e-01  2.8850e-01  2.2888e-02  8.6691e-04  2.7827e-04  0:00:01   19
   982  2.1920e-02  3.5813e-01  2.8820e-01  2.1933e-02  8.6473e-04  2.7737e-04  0:00:01   18
   983  2.1014e-02  3.5539e-01  2.8786e-01  2.1008e-02  8.6263e-04  2.7639e-04  0:00:01   17
   984  2.0128e-02  3.5289e-01  2.8743e-01  2.0102e-02  8.6041e-04  2.7537e-04  0:00:01   16
   985  1.9277e-02  3.5065e-01  2.8711e-01  1.9233e-02  8.5810e-04  2.7431e-04  0:00:01   15
   986  1.8464e-02  3.4877e-01  2.8675e-01  1.8403e-02  8.5583e-04  2.7337e-04  0:00:01   14
   987  1.7700e-02  3.4710e-01  2.8632e-01  1.7622e-02  8.5372e-04  2.7238e-04  0:00:01   13
   988  1.6994e-02  3.4563e-01  2.8591e-01  1.6902e-02  8.5155e-04  2.7154e-04  0:00:01   12
   989  1.6355e-02  3.4438e-01  2.8552e-01  1.6250e-02  8.4931e-04  2.7088e-04  0:00:01   11
   990  1.5793e-02  3.4329e-01  2.8518e-01  1.5677e-02  8.4687e-04  2.7064e-04  0:00:01   10

  iter  continuity  x-velocity  y-velocity      energy           k       omega     time/iter
   991  1.5315e-02  3.4233e-01  2.8465e-01  1.5192e-02  8.4449e-04  2.7072e-04  0:00:01    9
   992  1.4928e-02  3.4150e-01  2.8412e-01  1.4800e-02  8.4220e-04  2.7105e-04  0:00:01    8
   993  1.4649e-02  3.4076e-01  2.8355e-01  1.4519e-02  8.3993e-04  2.7178e-04  0:00:00    7
   994  1.4459e-02  3.4013e-01  2.8304e-01  1.4330e-02  8.3763e-04  2.7306e-04  0:00:00    6
   995  1.4361e-02  3.3960e-01  2.8256e-01  1.4236e-02  8.3533e-04  2.7432e-04  0:00:00    5
   996  1.4355e-02  3.3921e-01  2.8197e-01  1.4238e-02  8.3311e-04  2.7551e-04  0:00:00    4
   997  1.4439e-02  3.3890e-01  2.8139e-01  1.4332e-02  8.3086e-04  2.7670e-04  0:00:00    3
   998  1.4604e-02  3.3861e-01  2.8083e-01  1.4510e-02  8.2864e-04  2.7778e-04  0:00:00    2
   999  1.4840e-02  3.3838e-01  2.8026e-01  1.4761e-02  8.2650e-04  2.7874e-04  0:00:00    1
  1000  1.5143e-02  3.3814e-01  2.7970e-01  1.5079e-02  8.2447e-04  2.7973e-04  0:00:00    0

> 
adjoint/                parallel/               server/
define/                 parametric-study/       solve/
display/                plot/                   surface/
exit                    preferences/            views/
file/                   print-license-usage
mesh/                   report/

> /solve/cell-registers/add "airfoil" quit

> /solve/cell-registers/edit "airfoil" type boundary boundary-list airfoil () quit quit

> /mesh/modify-zones/ sep-cell-zone-mark fluid-part1 airfoil yes 201 cells marked

 Separates zone 12 into two zones, with 39904 and 201 cells.
 Separates zone 13 into 4 zones.
 All faces marked on thread, 4
 All faces marked on thread, 3
 All faces marked on thread, 2
 Separates zone 14 into 4 zones.
 All faces marked on thread, 10
 All faces marked on thread, 9
 All faces marked on thread, 5
 No faces marked on thread, 6
 No faces marked on thread, 7
 All faces marked on thread, 8
 Moved 28 cells from cell zone 12 to zone 11.

Updating new zone information...
   created new zone fluid-part1:011 from fluid-part1
   created new zone part1:010 from part1
   created new zone part1:009 from part1
   created new zone part1:005 from part1
   created new zone interior-part1:004 from interior-part1
   created new zone interior-part1:003 from interior-part1
   created new zone interior-part1:002 from interior-part1
done.
quit

> /file/export/ascii airfoil_bc interior-part1:002 () no x-velocity ()
 yes quit
Please answer o[k] or c[ancel].
The file "airfoil_bc" already exists.
OK to overwrite? [cancel] 

> /solve/cell-registers/add "inlet" quit

> /solve/cell-registers/edit "inlet" type boundary boundary-list inlet () quit quit

> /mesh/modify-zones/ sep-cell-zone-mark fluid-part1 inlet yes 400 cells marked

 Separates zone 12 into two zones, with 39504 and 400 cells.
 Separates zone 13 into 4 zones.
 All faces marked on thread, 17
 All faces marked on thread, 16
 All faces marked on thread, 15
 No faces marked on thread, 3
 No faces marked on thread, 2
 Separates zone 14 into 2 zones.
 All faces marked on thread, 18
 No faces marked on thread, 9
 No faces marked on thread, 5
 All faces marked on thread, 6
 Separates zone 7 into 2 zones.
 All faces marked on thread, 19
 Moved 0 cells from cell zone 12 to zone 20.

Updating new zone information...
   created new zone fluid-part1:020 from fluid-part1
   created new zone outlet:019 from outlet
   created new zone part1:018 from part1
   created new zone interior-part1:017 from interior-part1
   created new zone interior-part1:016 from interior-part1
   created new zone interior-part1:015 from interior-part1
done.
quit

> /file/export/ascii inlet_bc interior-part1:017 () no x-velocity ()
 yes quit
Please answer o[k] or c[ancel].
The file "inlet_bc" already exists.
OK to overwrite? [cancel] 

> /solve/cell-registers/add "outlet" quit

> /solve/cell-registers/edit "outlet" type boundary boundary-list outlet () quit quit

> /mesh/modify-zones/ sep-cell-zone-mark fluid-part1 outlet yes 203 cells marked

 Separates zone 12 into two zones, with 39301 and 203 cells.
 Separates zone 13 into 4 zones.
 All faces marked on thread, 23
 All faces marked on thread, 22
 All faces marked on thread, 21
 Separates zone 16 into 2 zones.
 All faces marked on thread, 24
 Separates zone 15 into 2 zones.
 All faces marked on thread, 25
 No faces marked on thread, 3
 No faces marked on thread, 2
 Separates zone 14 into 2 zones.
 All faces marked on thread, 26
 No faces marked on thread, 9
 No faces marked on thread, 5
 All faces marked on thread, 7
 Moved 0 cells from cell zone 12 to zone 27.

Updating new zone information...
   created new zone fluid-part1:027 from fluid-part1
   created new zone part1:026 from part1
   created new zone interior-part1:015:025 from interior-part1:015
   created new zone interior-part1:016:024 from interior-part1:016
   created new zone interior-part1:023 from interior-part1
   created new zone interior-part1:022 from interior-part1
   created new zone interior-part1:021 from interior-part1
done.
quit

> /file/export/ascii outlet_bc interior-part1:023 () no x-velocity ()
 yes quit
Please answer o[k] or c[ancel].
The file "outlet_bc" already exists.
OK to overwrite? [cancel] 

> /exit
The current case and data have not been saved.
OK to discard? [cancel] 

> 
adjoint/                parallel/               server/
define/                 parametric-study/       solve/
display/                plot/                   surface/
exit                    preferences/            views/
file/                   print-license-usage
mesh/                   report/

> 
adjoint/                parallel/               server/
define/                 parametric-study/       solve/
display/                plot/                   surface/
exit                    preferences/            views/
file/                   print-license-usage
mesh/                   report/

> 
> Halting due to end of file on input.
Auto-Transcript Stop Time:  20:18:48, 19 Dec 2023 
Total Transcript Time: 1 Minute 24 Second.

Automatic transcript closed.
