Processing AoA :0, Mach:0.1 
/encs/pkg/ansys-2022R2/root/v222/fluent/fluent22.2.0/bin/fluent -r22.2.0 -ssh 2ddp -t36 -g -i fluent_run.jou
/encs/pkg/ansys-2022R2/root/v222/fluent/fluent22.2.0/cortex/lnamd64/cortex.22.2.0 -f fluent -g -i fluent_run.jou (fluent "2ddp -pshmem  -host -r22.2.0 -t36 -mpi=intel -path/encs/pkg/ansys-2022R2/root/v222/fluent -ssh")

Opening input/output transcript to file "/nfs/speed-scratch/l_chopra/AICFD/Airfoil2D_Fluent_Case/fluent-20231222-190438-906933.trn".
Auto-Transcript Start Time:  19:04:38, 22 Dec 2023 
/encs/pkg/ansys-2022R2/root/v222/fluent/fluent22.2.0/bin/fluent -r22.2.0 2ddp -pshmem -host -t36 -mpi=intel -path/encs/pkg/ansys-2022R2/root/v222/fluent -ssh -cx speed-37.encs.concordia.ca:42029:32779
Starting /encs/pkg/ansys-2022R2/root/v222/fluent/fluent22.2.0/lnamd64/2ddp_host/fluent.22.2.0 host -cx speed-37.encs.concordia.ca:42029:32779 "(list (rpsetvar (QUOTE parallel/function) "fluent 2ddp -flux -node -r22.2.0 -t36 -pshmem -mpi=intel -ssh") (rpsetvar (QUOTE parallel/rhost) "") (rpsetvar (QUOTE parallel/ruser) "") (rpsetvar (QUOTE parallel/nprocs_string) "36") (rpsetvar (QUOTE parallel/auto-spawn?) #t) (rpsetvar (QUOTE parallel/trace-level) 0) (rpsetvar (QUOTE parallel/remote-shell) 1) (rpsetvar (QUOTE parallel/path) "/encs/pkg/ansys-2022R2/root/v222/fluent") (rpsetvar (QUOTE parallel/hostsfile) "") (rpsetvar (QUOTE gpuapp/devices) ""))"

              Welcome to ANSYS Fluent 2022 R2

              Copyright 1987-2022 ANSYS, Inc. All Rights Reserved.
              Unauthorized use, distribution or duplication is prohibited.
              This product is subject to U.S. laws governing export and re-export.
              For full Legal Notice, see documentation.

Build Time: May 27 2022 08:43:40 EDT  Build Id: 10212  
 
Connected License Server List:	1055@license-ansys.encs.concordia.ca

     --------------------------------------------------------------
     This is an academic version of ANSYS FLUENT. Usage of this product
     license is limited to the terms and conditions specified in your ANSYS
     license form, additional terms section.
     --------------------------------------------------------------
Host spawning Node 0 on machine "speed-37.encs.concordia.ca" (unix).
/encs/pkg/ansys-2022R2/root/v222/fluent/fluent22.2.0/bin/fluent -r22.2.0 2ddp -flux -node -t36 -pshmem -mpi=intel -ssh -mport 132.205.2.49:132.205.2.49:35803:0
Starting /encs/pkg/ansys-2022R2/root/v222/fluent/fluent22.2.0/multiport/mpi/lnamd64/intel2021/bin/mpirun --rsh=ssh -f /tmp/fluent-appfile.l_chopra.907300 -genv FI_PROVIDER tcp -genv FLUENT_ARCH lnamd64 -genv I_MPI_DEBUG 0 -genv I_MPI_ADJUST_REDUCE 2 -genv I_MPI_ADJUST_ALLREDUCE 2 -genv I_MPI_ADJUST_BCAST 8 -genv I_MPI_ADJUST_BARRIER 2 -genv I_MPI_ADJUST_ALLGATHER 2 -genv I_MPI_ADJUST_GATHER 2 -genv I_MPI_ADJUST_ALLTOALL 1 -genv I_MPI_ADJUST_SCATTER 2 -genv I_MPI_ADJUST_SCATTERV 2 -genv I_MPI_ADJUST_ALLGATHERV 2 -genv I_MPI_ADJUST_GATHERV 2 -genv I_MPI_PLATFORM auto -genv PYTHONHOME /encs/pkg/ansys-2022R2/root/v222/fluent/fluent22.2.0/../../commonfiles/CPython/3_7/linx64/Release/python -genv FLUENT_PROD_DIR /encs/pkg/ansys-2022R2/root/v222/fluent/fluent22.2.0 -genv FLUENT_AFFINITY 0 -genv I_MPI_PIN enable -genv KMP_AFFINITY disabled -n 36 /encs/pkg/ansys-2022R2/root/v222/fluent/fluent22.2.0/lnamd64/2ddp_node/fluent_mpi.22.2.0 node -mpiw intel -pic shmem -mport 132.205.2.49:132.205.2.49:35803:0
[0] MPI startup(): I_MPI_SHM_LMT environment variable is not supported.
[0] MPI startup(): Similar variables:
	 I_MPI_SHM_HEAP
	 I_MPI_SHM
	 I_MPI_SHM_OPT
	 I_MPI_SHM_CMA
	 I_MPI_SHM_THP
[0] MPI startup(): To check the list of supported variables, use the impi_info utility or refer to https://software.intel.com/en-us/mpi-library/documentation/get-started.

-------------------------------------------------------------------------------------
ID     Hostname              Core    O.S.      PID            Vendor                
-------------------------------------------------------------------------------------
n0-35  speed-37.encs.concor  36/256  Linux-64  907346-907381  AMD EPYC 7763 64-Core 
host   speed-37.encs.concor          Linux-64  907113         AMD EPYC 7763 64-Core 

MPI Option Selected: intel
Selected system interconnect: shared-memory
-------------------------------------------------------------------------------------

Cleanup script file is /nfs/speed-scratch/l_chopra/AICFD/Airfoil2D_Fluent_Case/cleanup-fluent-speed-37.encs.concordia.ca-907113.sh

Reading journal file fluent_run.jou...

> /file/set-tui-version "20.2"

> 
define/                 parallel/               report/
display/                parametric-study/       server/
exit                    plot/                   solve/
file/                   preferences/            surface/
mesh/                   print-license-usage     views/

> /file/read-case results/Airfoil2d_db.cas

Reading "results/Airfoil2d_db.cas"...

Buffering for file scan...



   40105 mixed cells, zone 12, binary.
Warning: reading 8 partition grid onto 36 compute node machine;
         will auto partition.
   40105 cell partition ids, zone 12, 8 partitions, binary.
   79104 2D interior faces, zone 13, binary.
     700 2D interior faces, zone 14, binary.
     400 2D velocity-inlet faces, zone  6, binary.
     205 2D pressure-outlet faces, zone  7, binary.
     201 2D wall faces, zone  8, binary.
   40505 nodes, binary.
40505 node flags, binary.

Building...
     mesh
	auto partitioning mesh by Metis (fast),
	distributing mesh
		parts....................................,
		faces....................................,
		nodes....................................,
		cells....................................,
        bandwidth reduction using Reverse Cuthill-McKee: 1111/40 = 27.775
     materials,
     interface,
     domains,
	mixture
     zones,
	airfoil
	outlet
	inlet
	part1
	interior-part1
	fluid-part1
     parallel,
Done.

> /define/boundary-conditions/set/velocity-inlet inlet () velocity-spec no yes quit 

> /define/boundary-conditions/set/velocity-inlet inlet () direction-0 no 34.72 quit 

> /define/boundary-conditions/set/velocity-inlet inlet () direction-1 no 0.00 quit 

> /solve/initialize/initialize-flow 

> /solve/iterate 1000

  iter  continuity  x-velocity  y-velocity      energy           k       omega     time/iter
     1  1.0000e+00  1.0000e+00  1.0000e+00  1.0000e+00  3.9586e-01  2.7218e-01  0:05:42  999
     2  4.9204e-01  4.7328e-01  4.4326e-01  4.9224e-01  2.8264e-01  2.1820e-01  0:04:46  998
     3  2.9015e-01  2.8043e-01  2.5569e-01  2.9024e-01  2.0452e-01  1.7307e-01  0:04:02  997
     4  2.1642e-01  2.1271e-01  2.0613e-01  2.1647e-01  1.5107e-01  1.3791e-01  0:03:26  996
     5  1.8453e-01  1.5573e-01  1.7254e-01  1.8457e-01  1.1436e-01  1.1110e-01  0:02:57  995
     6  1.5950e-01  1.2677e-01  1.4603e-01  1.5954e-01  8.9314e-02  9.0951e-02  0:02:34  994
     7  1.3742e-01  1.0947e-01  1.2471e-01  1.3745e-01  7.2824e-02  7.5796e-02  0:02:16  993
     8  1.2041e-01  9.5628e-02  1.0745e-01  1.2043e-01  6.1125e-02  6.4256e-02  0:02:01  992
     9  1.0682e-01  8.5079e-02  9.3251e-02  1.0685e-01  5.2343e-02  5.5313e-02  0:01:50  991
    10  9.5442e-02  7.7480e-02  8.1349e-02  9.5462e-02  4.5663e-02  4.8243e-02  0:01:41  990
    11  8.5900e-02  7.2145e-02  7.1293e-02  8.5918e-02  4.0332e-02  4.2546e-02  0:01:33  989

  iter  continuity  x-velocity  y-velocity      energy           k       omega     time/iter
    12  7.7925e-02  6.8700e-02  6.2741e-02  7.7941e-02  3.5984e-02  3.7867e-02  0:01:27  988
    13  7.1206e-02  6.6690e-02  5.5438e-02  7.1220e-02  3.2374e-02  3.3962e-02  0:01:22  987
    14  6.5527e-02  6.5861e-02  4.9176e-02  6.5541e-02  2.9347e-02  3.0659e-02  0:01:18  986
    15  6.0670e-02  6.6048e-02  4.3766e-02  6.0684e-02  2.6754e-02  2.7834e-02  0:01:15  985
    16  5.6531e-02  6.7087e-02  3.9074e-02  5.6545e-02  2.4501e-02  2.5395e-02  0:01:13  984
    17  5.2982e-02  6.8887e-02  3.4985e-02  5.2996e-02  2.2541e-02  2.3275e-02  0:01:10  983
    18  4.9944e-02  7.1357e-02  3.1406e-02  4.9959e-02  2.0811e-02  2.1418e-02  0:01:09  982
    19  4.7375e-02  7.4569e-02  2.8245e-02  4.7391e-02  1.9279e-02  1.9779e-02  0:01:09  981
    20  4.5202e-02  7.8485e-02  2.5435e-02  4.5219e-02  1.7924e-02  1.8324e-02  0:01:07  980
    21  4.3360e-02  8.3080e-02  2.2927e-02  4.3379e-02  1.6719e-02  1.7026e-02  0:01:06  979
    22  4.1767e-02  8.8352e-02  2.0692e-02  4.1788e-02  1.5641e-02  1.5862e-02  0:01:05  978

  iter  continuity  x-velocity  y-velocity      energy           k       omega     time/iter
    23  4.0331e-02  9.4358e-02  1.8705e-02  4.0355e-02  1.4672e-02  1.4814e-02  0:01:04  977
    24  3.8962e-02  1.0115e-01  1.6995e-02  3.8990e-02  1.3798e-02  1.3867e-02  0:01:04  976
    25  3.7583e-02  1.0880e-01  1.5630e-02  3.7615e-02  1.3011e-02  1.3009e-02  0:01:03  975
    26  3.6142e-02  1.1738e-01  1.4759e-02  3.6180e-02  1.2301e-02  1.2230e-02  0:01:03  974
    27  3.4685e-02  1.2702e-01  1.4560e-02  3.4731e-02  1.1662e-02  1.1521e-02  0:01:03  973
    28  3.3403e-02  1.3788e-01  1.5191e-02  3.3458e-02  1.1083e-02  1.0872e-02  0:01:03  972
    29  3.2722e-02  1.5017e-01  1.6701e-02  3.2787e-02  1.0557e-02  1.0280e-02  0:01:03  971
    30  3.3267e-02  1.6413e-01  1.9024e-02  3.3342e-02  1.0083e-02  9.7366e-03  0:01:03  970
    31  3.5814e-02  1.8001e-01  2.2048e-02  3.5897e-02  9.6592e-03  9.2372e-03  0:01:04  969
    32  4.0909e-02  1.9805e-01  2.5652e-02  4.0998e-02  9.2782e-03  8.7798e-03  0:01:03  968
    33  4.8671e-02  2.1841e-01  2.9735e-02  4.8767e-02  8.9290e-03  8.3610e-03  0:01:03  967

  iter  continuity  x-velocity  y-velocity      energy           k       omega     time/iter
    34  5.8919e-02  2.4118e-01  3.4216e-02  5.9022e-02  8.5992e-03  7.9775e-03  0:01:02  966
    35  7.1281e-02  2.6630e-01  3.9015e-02  7.1395e-02  8.2996e-03  7.6273e-03  0:01:02  965
    36  8.5375e-02  2.9361e-01  4.4040e-02  8.5506e-02  8.0003e-03  7.3069e-03  0:01:02  964
    37  1.0053e-01  3.2263e-01  4.9217e-02  1.0069e-01  7.7242e-03  7.0156e-03  0:01:02  963
    38  1.1591e-01  3.5293e-01  5.4405e-02  1.1609e-01  7.4566e-03  6.7482e-03  0:01:01  962
    39  1.3119e-01  3.8386e-01  5.9491e-02  1.3140e-01  7.1907e-03  6.5044e-03  0:01:01  961
    40  1.4607e-01  4.1463e-01  6.4386e-02  1.4632e-01  6.9661e-03  6.2805e-03  0:01:01  960
    41  1.6025e-01  4.4442e-01  6.8930e-02  1.6054e-01  6.8048e-03  6.0756e-03  0:01:01  959
    42  1.7344e-01  4.7230e-01  7.3071e-02  1.7378e-01  6.6668e-03  5.8870e-03  0:01:01  958
    43  1.8526e-01  4.9753e-01  7.6704e-02  1.8564e-01  6.5314e-03  5.7120e-03  0:01:02  957
    44  1.9544e-01  5.1897e-01  7.9928e-02  1.9587e-01  6.3959e-03  5.5474e-03  0:01:01  956

  iter  continuity  x-velocity  y-velocity      energy           k       omega     time/iter
    45  2.0355e-01  5.3601e-01  8.2837e-02  2.0403e-01  6.2644e-03  5.3904e-03  0:01:01  955
    46  2.0948e-01  5.4801e-01  8.5631e-02  2.0999e-01  6.1428e-03  5.2388e-03  0:01:01  954
    47  2.1301e-01  5.5448e-01  8.8548e-02  2.1356e-01  6.0172e-03  5.0925e-03  0:01:01  953
    48  2.1401e-01  5.5502e-01  9.1924e-02  2.1459e-01  5.9171e-03  4.9450e-03  0:01:00  952
    49  2.1240e-01  5.4952e-01  9.5968e-02  2.1300e-01  5.8118e-03  4.7944e-03  0:01:00  951
    50  2.0817e-01  5.3802e-01  1.0083e-01  2.0878e-01  5.7016e-03  4.6448e-03  0:01:00  950
    51  2.0140e-01  5.2091e-01  1.0639e-01  2.0200e-01  5.5974e-03  4.4941e-03  0:01:00  949
    52  1.9228e-01  4.9873e-01  1.1246e-01  1.9286e-01  5.4871e-03  4.3479e-03  0:01:00  948
    53  1.8110e-01  4.7221e-01  1.1872e-01  1.8165e-01  5.3648e-03  4.2076e-03  0:01:00  947
    54  1.6824e-01  4.4233e-01  1.2474e-01  1.6875e-01  5.2266e-03  4.0727e-03  0:01:00  946
    55  1.5409e-01  4.1016e-01  1.3010e-01  1.5455e-01  5.0814e-03  3.9441e-03  0:01:00  945

  iter  continuity  x-velocity  y-velocity      energy           k       omega     time/iter
    56  1.3918e-01  3.7688e-01  1.3445e-01  1.3959e-01  4.9388e-03  3.8255e-03  0:00:59  944
    57  1.2432e-01  3.4381e-01  1.3746e-01  1.2466e-01  4.7936e-03  3.7149e-03  0:00:59  943
    58  1.1037e-01  3.1229e-01  1.3893e-01  1.1065e-01  4.6550e-03  3.6086e-03  0:00:59  942
    59  9.8469e-02  2.8370e-01  1.3873e-01  9.8696e-02  4.5130e-03  3.5055e-03  0:00:59  941
    60  8.9850e-02  2.5933e-01  1.3683e-01  9.0034e-02  4.3722e-03  3.4057e-03  0:00:59  940
    61  8.5402e-02  2.4022e-01  1.3333e-01  8.5565e-02  4.2364e-03  3.3113e-03  0:00:59  939
    62  8.5186e-02  2.2690e-01  1.2840e-01  8.5350e-02  4.1030e-03  3.2223e-03  0:00:59  938
    63  8.8370e-02  2.1946e-01  1.2230e-01  8.8552e-02  3.9857e-03  3.1367e-03  0:00:59  937
    64  9.3645e-02  2.1743e-01  1.1532e-01  9.3854e-02  3.8829e-03  3.0537e-03  0:01:58  936
    65  9.9743e-02  2.1972e-01  1.0777e-01  9.9981e-02  3.7932e-03  2.9714e-03  0:01:47  935
    66  1.0560e-01  2.2481e-01  9.9992e-02  1.0586e-01  3.7295e-03  2.8909e-03  0:01:37  934

  iter  continuity  x-velocity  y-velocity      energy           k       omega     time/iter
    67  1.1058e-01  2.3120e-01  9.2378e-02  1.1086e-01  3.6968e-03  2.8151e-03  0:01:30  933
    68  1.1436e-01  2.3771e-01  8.5044e-02  1.1465e-01  3.6948e-03  2.7445e-03  0:01:23  932
    69  1.1678e-01  2.4346e-01  7.8305e-02  1.1708e-01  3.6997e-03  2.6768e-03  0:01:18  931
    70  1.1787e-01  2.4795e-01  7.2348e-02  1.1817e-01  3.7042e-03  2.6100e-03  0:01:15  930
    71  1.1782e-01  2.5085e-01  6.7273e-02  1.1811e-01  3.7048e-03  2.5428e-03  0:01:12  929
    72  1.1680e-01  2.5200e-01  6.3100e-02  1.1708e-01  3.7072e-03  2.4760e-03  0:01:09  928
    73  1.1503e-01  2.5131e-01  5.9829e-02  1.1531e-01  3.7083e-03  2.4102e-03  0:01:07  927
    74  1.1271e-01  2.4883e-01  5.7391e-02  1.1298e-01  3.7042e-03  2.3468e-03  0:01:05  926
    75  1.1001e-01  2.4473e-01  5.5683e-02  1.1026e-01  3.6966e-03  2.2863e-03  0:01:04  925
    76  1.0702e-01  2.3921e-01  5.4581e-02  1.0725e-01  3.6901e-03  2.2285e-03  0:01:03  924
    77  1.0375e-01  2.3244e-01  5.3977e-02  1.0397e-01  3.6813e-03  2.1707e-03  0:01:02  923

  iter  continuity  x-velocity  y-velocity      energy           k       omega     time/iter
    78  1.0022e-01  2.2464e-01  5.3658e-02  1.0043e-01  3.6645e-03  2.1118e-03  0:01:01  922
    79  9.6454e-02  2.1606e-01  5.3428e-02  9.6646e-02  3.6415e-03  2.0528e-03  0:01:01  921
    80  9.2529e-02  2.0691e-01  5.3137e-02  9.2707e-02  3.6135e-03  1.9941e-03  0:01:00  920
    81  8.8549e-02  1.9745e-01  5.2664e-02  8.8715e-02  3.5868e-03  1.9359e-03  0:01:00  919
    82  8.4580e-02  1.8789e-01  5.1959e-02  8.4733e-02  3.5589e-03  1.8786e-03  0:00:59  918
    83  8.0646e-02  1.7845e-01  5.0985e-02  8.0787e-02  3.5261e-03  1.8218e-03  0:00:59  917
    84  7.6775e-02  1.6934e-01  4.9737e-02  7.6906e-02  3.4872e-03  1.7659e-03  0:00:59  916
    85  7.2991e-02  1.6072e-01  4.8216e-02  7.3113e-02  3.4514e-03  1.7110e-03  0:00:59  915
    86  6.9335e-02  1.5271e-01  4.6471e-02  6.9448e-02  3.4133e-03  1.6593e-03  0:00:59  914
    87  6.5837e-02  1.4539e-01  4.4545e-02  6.5941e-02  3.3727e-03  1.6098e-03  0:00:59  913
    88  6.2516e-02  1.3879e-01  4.2498e-02  6.2613e-02  3.3305e-03  1.5610e-03  0:00:58  912

  iter  continuity  x-velocity  y-velocity      energy           k       omega     time/iter
    89  5.9382e-02  1.3287e-01  4.0396e-02  5.9473e-02  3.2898e-03  1.5119e-03  0:00:58  911
    90  5.6461e-02  1.2761e-01  3.8314e-02  5.6547e-02  3.2525e-03  1.4656e-03  0:00:58  910
    91  5.3725e-02  1.2289e-01  3.6313e-02  5.3806e-02  3.2122e-03  1.4211e-03  0:00:58  909
    92  5.1192e-02  1.1865e-01  3.4446e-02  5.1268e-02  3.1713e-03  1.3775e-03  0:00:58  908
    93  4.8865e-02  1.1482e-01  3.2755e-02  4.8937e-02  3.1359e-03  1.3337e-03  0:00:58  907
    94  4.6753e-02  1.1130e-01  3.1268e-02  4.6821e-02  3.1004e-03  1.2915e-03  0:00:59  906
    95  4.4860e-02  1.0806e-01  2.9993e-02  4.4925e-02  3.0629e-03  1.2512e-03  0:00:59  905
    96  4.3192e-02  1.0507e-01  2.8922e-02  4.3253e-02  3.0224e-03  1.2136e-03  0:00:58  904
    97  4.1743e-02  1.0226e-01  2.8017e-02  4.1801e-02  2.9812e-03  1.1778e-03  0:00:58  903
    98  4.0494e-02  9.9657e-02  2.7227e-02  4.0549e-02  2.9390e-03  1.1429e-03  0:00:58  902
    99  3.9450e-02  9.7231e-02  2.6519e-02  3.9502e-02  2.8960e-03  1.1082e-03  0:00:58  901

  iter  continuity  x-velocity  y-velocity      energy           k       omega     time/iter
   100  3.8594e-02  9.4987e-02  2.5852e-02  3.8643e-02  2.8511e-03  1.0747e-03  0:00:57  900
   101  3.7912e-02  9.2923e-02  2.5183e-02  3.7958e-02  2.8104e-03  1.0422e-03  0:00:57  899
   102  3.7392e-02  9.1046e-02  2.4480e-02  3.7435e-02  2.7681e-03  1.0109e-03  0:00:58  898
   103  3.7041e-02  8.9360e-02  2.3738e-02  3.7081e-02  2.7241e-03  9.8150e-04  0:00:58  897
   104  3.6762e-02  8.7807e-02  2.2926e-02  3.6799e-02  2.6832e-03  9.5386e-04  0:00:58  896
   105  3.6575e-02  8.6414e-02  2.2066e-02  3.6610e-02  2.6443e-03  9.2871e-04  0:00:58  895
   106  3.6463e-02  8.5136e-02  2.1156e-02  3.6495e-02  2.6088e-03  9.0605e-04  0:00:58  894
   107  3.6409e-02  8.4006e-02  2.0227e-02  3.6440e-02  2.5746e-03  8.8557e-04  0:00:58  893
   108  3.6410e-02  8.3045e-02  1.9303e-02  3.6440e-02  2.5434e-03  8.6698e-04  0:00:58  892
   109  3.6439e-02  8.2177e-02  1.8388e-02  3.6470e-02  2.5134e-03  8.4968e-04  0:00:58  891
   110  3.6486e-02  8.1391e-02  1.7510e-02  3.6516e-02  2.4850e-03  8.3418e-04  0:00:58  890

  iter  continuity  x-velocity  y-velocity      energy           k       omega     time/iter
   111  3.6526e-02  8.0640e-02  1.6665e-02  3.6558e-02  2.4575e-03  8.2183e-04  0:00:57  889
   112  3.6563e-02  7.9977e-02  1.5899e-02  3.6596e-02  2.4310e-03  8.1203e-04  0:00:57  888
   113  3.6592e-02  7.9418e-02  1.5277e-02  3.6627e-02  2.4064e-03  8.0506e-04  0:00:57  887
   114  3.6614e-02  7.8975e-02  1.4785e-02  3.6651e-02  2.3839e-03  8.0022e-04  0:00:57  886
   115  3.6617e-02  7.8619e-02  1.4418e-02  3.6657e-02  2.3611e-03  7.9681e-04  0:00:57  885
   116  3.6606e-02  7.8378e-02  1.4172e-02  3.6649e-02  2.3392e-03  7.9574e-04  0:00:56  884
   117  3.6582e-02  7.8265e-02  1.4034e-02  3.6628e-02  2.3174e-03  7.9653e-04  0:00:56  883
   118  3.6548e-02  7.8298e-02  1.3993e-02  3.6596e-02  2.2987e-03  7.9802e-04  0:00:57  882
   119  3.6514e-02  7.8532e-02  1.4063e-02  3.6565e-02  2.2805e-03  7.9906e-04  0:00:57  881
   120  3.6493e-02  7.8921e-02  1.4187e-02  3.6547e-02  2.2667e-03  8.0010e-04  0:00:57  880
   121  3.6507e-02  7.9461e-02  1.4327e-02  3.6562e-02  2.2539e-03  8.0006e-04  0:00:56  879

  iter  continuity  x-velocity  y-velocity      energy           k       omega     time/iter
   122  3.6525e-02  8.0143e-02  1.4469e-02  3.6582e-02  2.2428e-03  8.0021e-04  0:00:56  878
   123  3.6583e-02  8.0968e-02  1.4594e-02  3.6641e-02  2.2335e-03  8.0010e-04  0:00:56  877
   124  3.6691e-02  8.1914e-02  1.4696e-02  3.6750e-02  2.2264e-03  7.9916e-04  0:00:56  876
   125  3.6858e-02  8.2980e-02  1.4775e-02  3.6917e-02  2.2204e-03  7.9773e-04  0:00:56  875
   126  3.7067e-02  8.4125e-02  1.4820e-02  3.7125e-02  2.2159e-03  7.9624e-04  0:00:56  874
   127  3.7331e-02  8.5315e-02  1.4827e-02  3.7388e-02  2.2140e-03  7.9462e-04  0:00:55  873
   128  3.7647e-02  8.6519e-02  1.4783e-02  3.7702e-02  2.2115e-03  7.9300e-04  0:00:55  872
   129  3.8000e-02  8.7698e-02  1.4701e-02  3.8053e-02  2.2063e-03  7.9257e-04  0:00:55  871
   130  3.8383e-02  8.8821e-02  1.4589e-02  3.8434e-02  2.1970e-03  7.9293e-04  0:00:55  870
   131  3.8781e-02  8.9869e-02  1.4474e-02  3.8829e-02  2.1871e-03  7.9282e-04  0:00:55  869
   132  3.9185e-02  9.0829e-02  1.4348e-02  3.9231e-02  2.1793e-03  7.9236e-04  0:00:55  868

  iter  continuity  x-velocity  y-velocity      energy           k       omega     time/iter
   133  3.9575e-02  9.1670e-02  1.4222e-02  3.9617e-02  2.1716e-03  7.9107e-04  0:00:55  867
   134  3.9937e-02  9.2359e-02  1.4110e-02  3.9977e-02  2.1631e-03  7.8880e-04  0:00:55  866
   135  4.0259e-02  9.2889e-02  1.4023e-02  4.0295e-02  2.1556e-03  7.8569e-04  0:00:55  865
   136  4.0525e-02  9.3262e-02  1.3945e-02  4.0559e-02  2.1484e-03  7.8179e-04  0:00:55  864
   137  4.0721e-02  9.3461e-02  1.3901e-02  4.0752e-02  2.1434e-03  7.7754e-04  0:00:54  863
   138  4.0841e-02  9.3503e-02  1.3882e-02  4.0869e-02  2.1412e-03  7.7306e-04  0:00:54  862
   139  4.0875e-02  9.3379e-02  1.3901e-02  4.0900e-02  2.1399e-03  7.6908e-04  0:00:54  861
   140  4.0818e-02  9.3082e-02  1.3956e-02  4.0842e-02  2.1418e-03  7.6728e-04  0:00:54  860
   141  4.0664e-02  9.2618e-02  1.4042e-02  4.0686e-02  2.1447e-03  7.6667e-04  0:00:54  859
   142  4.0406e-02  9.1978e-02  1.4140e-02  4.0425e-02  2.1484e-03  7.6691e-04  0:00:54  858
   143  4.0046e-02  9.1226e-02  1.4307e-02  4.0063e-02  2.1537e-03  7.6858e-04  0:00:54  857

  iter  continuity  x-velocity  y-velocity      energy           k       omega     time/iter
   144  3.9583e-02  9.0388e-02  1.4506e-02  3.9598e-02  2.1596e-03  7.7066e-04  0:00:54  856
   145  3.9017e-02  8.9465e-02  1.4706e-02  3.9031e-02  2.1652e-03  7.7202e-04  0:00:54  855
   146  3.8343e-02  8.8463e-02  1.4932e-02  3.8355e-02  2.1694e-03  7.7295e-04  0:00:54  854
   147  3.7593e-02  8.7438e-02  1.5189e-02  3.7603e-02  2.1738e-03  7.7342e-04  0:00:54  853
   148  3.6713e-02  8.6330e-02  1.5479e-02  3.6723e-02  2.1778e-03  7.7295e-04  0:00:54  852
   149  3.5744e-02  8.5271e-02  1.5784e-02  3.5752e-02  2.1790e-03  7.7129e-04  0:00:54  851
   150  3.4695e-02  8.4279e-02  1.6103e-02  3.4701e-02  2.1790e-03  7.6902e-04  0:00:54  850
   151  3.3575e-02  8.3404e-02  1.6422e-02  3.3580e-02  2.1790e-03  7.6640e-04  0:00:55  849
   152  3.2396e-02  8.2690e-02  1.6768e-02  3.2399e-02  2.1792e-03  7.6333e-04  0:00:54  848
   153  3.1174e-02  8.2191e-02  1.7132e-02  3.1176e-02  2.1794e-03  7.6026e-04  0:00:54  847
   154  2.9935e-02  8.1978e-02  1.7499e-02  2.9936e-02  2.1784e-03  7.5679e-04  0:00:54  846

  iter  continuity  x-velocity  y-velocity      energy           k       omega     time/iter
   155  2.8707e-02  8.2103e-02  1.7875e-02  2.8706e-02  2.1755e-03  7.5263e-04  0:00:54  845
   156  2.7526e-02  8.2628e-02  1.8265e-02  2.7524e-02  2.1725e-03  7.4816e-04  0:00:54  844
   157  2.6441e-02  8.3613e-02  1.8669e-02  2.6437e-02  2.1689e-03  7.4414e-04  0:00:54  843
   158  2.5505e-02  8.5109e-02  1.9081e-02  2.5499e-02  2.1661e-03  7.4294e-04  0:00:53  842
   159  2.4776e-02  8.7159e-02  1.9500e-02  2.4769e-02  2.1640e-03  7.4212e-04  0:00:53  841
   160  2.4316e-02  8.9764e-02  1.9901e-02  2.4309e-02  2.1619e-03  7.4111e-04  0:00:53  840
   161  2.4188e-02  9.2943e-02  2.0300e-02  2.4180e-02  2.1594e-03  7.4067e-04  0:00:53  839
   162  2.4489e-02  9.6715e-02  2.0692e-02  2.4481e-02  2.1580e-03  7.4071e-04  0:00:53  838
   163  2.5086e-02  1.0091e-01  2.1068e-02  2.5078e-02  2.1576e-03  7.4095e-04  0:00:53  837
   164  2.6049e-02  1.0560e-01  2.1429e-02  2.6043e-02  2.1587e-03  7.4199e-04  0:00:53  836
slurmstepd: error: *** JOB 8079 ON speed-37 CANCELLED AT 2023-12-22T19:05:10 ***
